@<TRIPOS>MOLECULE
*****
 34 37 0 0 0
SMALL
GASTEIGER

@<TRIPOS>ATOM
      1 C          66.7012   94.4160   11.5600 C.3     1  UNL1        0.1203
      2 N          65.8943   93.2544   12.0595 N.am    1  UNL1       -0.2537
      3 C          64.9521   92.6413   11.0664 C.2     1  UNL1        0.2525
      4 O          64.9414   93.2710    9.7049 O.2     1  UNL1       -0.2696
      5 C          64.0192   91.4818   11.2545 C.ar    1  UNL1        0.0503
      6 C          63.2491   91.1891   10.0010 C.ar    1  UNL1        0.0042
      7 C          62.2580   90.0635    9.9754 C.ar    1  UNL1        0.0001
      8 C          62.0369   89.2308   11.2033 C.ar    1  UNL1       -0.0003
      9 C          62.8070   89.5235   12.4568 C.ar    1  UNL1       -0.0038
     10 C          63.7981   90.6491   12.4824 C.ar    1  UNL1       -0.0123
     11 C          64.4554   90.7701   13.8253 C.3     1  UNL1        0.0655
     12 C          65.4960   91.7538   14.2721 C.ar    1  UNL1       -0.0031
     13 C          65.8862   91.5271   15.7026 C.ar    1  UNL1       -0.0027
     14 C          66.9167   92.4059   16.3472 C.ar    1  UNL1       -0.0002
     15 C          67.5571   93.5114   15.5614 C.ar    1  UNL1        0.0013
     16 C          67.1669   93.7382   14.1308 C.ar    1  UNL1        0.0146
     17 C          66.1363   92.8594   13.4862 C.ar    1  UNL1        0.0505
     18 C          64.0136   89.7760   14.8580 C.3     1  UNL1        0.0981
     19 N          64.4898   88.3555   14.7839 N.am    1  UNL1       -0.3023
     20 C          63.8601   87.3071   15.6522 C.2     1  UNL1        0.2426
     21 O          62.7541   87.6789   16.5947 O.2     1  UNL1       -0.2733
     22 H          65.2158   88.1114   14.1653 H       1  UNL1        0.1495
     23 C          64.3364   85.8866   15.5780 C.3     1  UNL1        0.1759
     24 N          64.0522   85.0631   14.3569 N.am    1  UNL1       -0.2931
     25 C          64.0154   83.5667   14.4533 C.2     1  UNL1        0.2462
     26 O          64.2627   82.8938   15.7709 O.2     1  UNL1       -0.2701
     27 H          63.8899   85.5048   13.4921 H       1  UNL1        0.1502
     28 C          63.7312   82.7433   13.2322 C.ar    1  UNL1        0.0535
     29 C          64.1580   83.2342   11.8806 C.ar    1  UNL1        0.0068
     30 C          63.8738   82.4107   10.6594 C.ar    1  UNL1        0.0298
     31 C          63.1629   81.0963   10.7900 C.ar    1  UNL1        0.1401
     32 F          62.8787   80.2728    9.5688 F       1  UNL1       -0.2042
     33 C          62.7361   80.6054   12.1416 C.ar    1  UNL1        0.0298
     34 C          63.0202   81.4289   13.3627 C.ar    1  UNL1        0.0068
@<TRIPOS>BOND
     1     1     2    1
     2     2     3   am
     3     3     4    2
     4     3     5    1
     5     5     6   ar
     6     6     7   ar
     7     7     8   ar
     8     8     9   ar
     9     9    10   ar
    10    10    11    1
    11    11    18    1
    12    18    19    1
    13    19    20   am
    14    20    21    2
    15    20    23    1
    16    23    24    1
    17    24    25   am
    18    25    26    2
    19    25    28    1
    20    28    29   ar
    21    29    30   ar
    22    30    31   ar
    23    31    32    1
    24    31    33   ar
    25    33    34   ar
    26    11    12    1
    27    12    13   ar
    28    13    14   ar
    29    14    15   ar
    30    15    16   ar
    31    16    17   ar
    32    17     2    1
    33    10     5   ar
    34    34    28   ar
    35    17    12   ar
    36    19    22    1
    37    24    27    1
@<TRIPOS>MOLECULE
*****
 34 37 0 0 0
SMALL
GASTEIGER

@<TRIPOS>ATOM
      1 C          61.7911   86.0368    9.4172 C.3     1  UNL1        0.1203
      2 N          62.3750   86.4362   10.7399 N.am    1  UNL1       -0.2537
      3 C          62.8169   85.3077   11.6237 C.2     1  UNL1        0.2525
      4 O          62.6166   83.9290   11.0679 O.2     1  UNL1       -0.2696
      5 C          63.4327   85.3756   12.9898 C.ar    1  UNL1        0.0503
      6 C          63.7268   84.0063   13.5270 C.ar    1  UNL1        0.0042
      7 C          64.3467   83.8502   14.8839 C.ar    1  UNL1        0.0001
      8 C          64.6727   85.0634   15.7036 C.ar    1  UNL1       -0.0003
      9 C          64.3786   86.4327   15.1664 C.ar    1  UNL1       -0.0038
     10 C          63.7587   86.5888   13.8095 C.ar    1  UNL1       -0.0123
     11 C          63.5493   88.0337   13.4655 C.3     1  UNL1        0.0655
     12 C          62.9623   88.6224   12.2170 C.ar    1  UNL1       -0.0031
     13 C          62.9343   90.1209   12.2782 C.ar    1  UNL1       -0.0027
     14 C          62.3838   90.9084   11.1264 C.ar    1  UNL1       -0.0002
     15 C          61.8612   90.1975    9.9134 C.ar    1  UNL1        0.0013
     16 C          61.8891   88.6990    9.8522 C.ar    1  UNL1        0.0146
     17 C          62.4397   87.9114   11.0040 C.ar    1  UNL1        0.0505
     18 C          63.9845   89.0205   14.5080 C.3     1  UNL1        0.0981
     19 N          65.0795   89.9995   14.2035 N.am    1  UNL1       -0.3023
     20 C          65.0510   91.3700   14.8126 C.2     1  UNL1        0.2426
     21 O          63.9277   91.7615   15.7261 O.2     1  UNL1       -0.2733
     22 H          65.8168   89.7426   13.6039 H       1  UNL1        0.1495
     23 C          66.1459   92.3489   14.5080 C.3     1  UNL1        0.1759
     24 N          66.0317   93.2558   13.3186 N.am    1  UNL1       -0.2931
     25 C          66.9511   93.0758   12.1472 C.2     1  UNL1        0.2462
     26 O          67.9848   91.9889   12.1652 O.2     1  UNL1       -0.2701
     27 H          65.3533   93.9691   13.3068 H       1  UNL1        0.1502
     28 C          66.8369   93.9827   10.9579 C.ar    1  UNL1        0.0535
     29 C          67.5045   93.6134    9.6663 C.ar    1  UNL1        0.0068
     30 C          67.3903   94.5203    8.4770 C.ar    1  UNL1        0.0298
     31 C          66.6085   95.7964    8.5791 C.ar    1  UNL1        0.1401
     32 F          66.4943   96.7033    7.3898 F       1  UNL1       -0.2042
     33 C          65.9410   96.1657    9.8707 C.ar    1  UNL1        0.0298
     34 C          66.0552   95.2588   11.0601 C.ar    1  UNL1        0.0068
@<TRIPOS>BOND
     1     1     2    1
     2     2     3   am
     3     3     4    2
     4     3     5    1
     5     5     6   ar
     6     6     7   ar
     7     7     8   ar
     8     8     9   ar
     9     9    10   ar
    10    10    11    1
    11    11    18    1
    12    18    19    1
    13    19    20   am
    14    20    21    2
    15    20    23    1
    16    23    24    1
    17    24    25   am
    18    25    26    2
    19    25    28    1
    20    28    29   ar
    21    29    30   ar
    22    30    31   ar
    23    31    32    1
    24    31    33   ar
    25    33    34   ar
    26    11    12    1
    27    12    13   ar
    28    13    14   ar
    29    14    15   ar
    30    15    16   ar
    31    16    17   ar
    32    17     2    1
    33    10     5   ar
    34    34    28   ar
    35    17    12   ar
    36    19    22    1
    37    24    27    1
@<TRIPOS>MOLECULE
*****
 34 37 0 0 0
SMALL
GASTEIGER

@<TRIPOS>ATOM
      1 C          62.7279   83.8964   11.0950 C.3     1  UNL1        0.1203
      2 N          62.8774   85.2988   11.6057 N.am    1  UNL1       -0.2537
      3 C          62.3742   86.3799   10.6958 C.2     1  UNL1        0.2525
      4 O          61.7881   85.9156    9.3954 O.2     1  UNL1       -0.2696
      5 C          62.3796   87.8639   10.9141 C.ar    1  UNL1        0.0503
      6 C          61.7785   88.5916    9.7483 C.ar    1  UNL1        0.0042
      7 C          61.6873   90.0887    9.7649 C.ar    1  UNL1        0.0001
      8 C          62.1973   90.8581   10.9472 C.ar    1  UNL1       -0.0003
      9 C          62.7984   90.1305   12.1130 C.ar    1  UNL1       -0.0038
     10 C          62.8896   88.6334   12.0964 C.ar    1  UNL1       -0.0123
     11 C          63.5201   88.1088   13.3524 C.3     1  UNL1        0.0655
     12 C          63.7963   86.6853   13.7362 C.ar    1  UNL1       -0.0031
     13 C          64.4429   86.5974   15.0869 C.ar    1  UNL1       -0.0027
     14 C          64.8034   85.2590   15.6602 C.ar    1  UNL1       -0.0002
     15 C          64.5173   84.0085   14.8829 C.ar    1  UNL1        0.0013
     16 C          63.8708   84.0963   13.5322 C.ar    1  UNL1        0.0146
     17 C          63.5103   85.4347   12.9588 C.ar    1  UNL1        0.0505
     18 C          63.9283   89.1448   14.3574 C.3     1  UNL1        0.0981
     19 N          65.0304   90.1098   14.0345 N.am    1  UNL1       -0.3023
     20 C          65.1422   91.4008   14.7900 C.2     1  UNL1        0.2426
     21 O          64.1520   91.7268   15.8685 O.2     1  UNL1       -0.2733
     22 H          65.6803   89.8959   13.3266 H       1  UNL1        0.1495
     23 C          66.2443   92.3657   14.4671 C.3     1  UNL1        0.1759
     24 N          66.1069   93.2978   13.2999 N.am    1  UNL1       -0.2931
     25 C          66.9820   93.1240   12.0942 C.2     1  UNL1        0.2462
     26 O          67.9946   92.0179   12.0556 O.2     1  UNL1       -0.2701
     27 H          65.4423   94.0237   13.3252 H       1  UNL1        0.1502
     28 C          66.8446   94.0561   10.9270 C.ar    1  UNL1        0.0535
     29 C          66.0922   95.3446   11.0807 C.ar    1  UNL1        0.0068
     30 C          65.9548   96.2767    9.9135 C.ar    1  UNL1        0.0298
     31 C          66.5699   95.9203    8.5926 C.ar    1  UNL1        0.1401
     32 F          66.4325   96.8524    7.4254 F       1  UNL1       -0.2042
     33 C          67.3223   94.6317    8.4389 C.ar    1  UNL1        0.0298
     34 C          67.4597   93.6996    9.6061 C.ar    1  UNL1        0.0068
@<TRIPOS>BOND
     1     1     2    1
     2     2     3   am
     3     3     4    2
     4     3     5    1
     5     5     6   ar
     6     6     7   ar
     7     7     8   ar
     8     8     9   ar
     9     9    10   ar
    10    10    11    1
    11    11    18    1
    12    18    19    1
    13    19    20   am
    14    20    21    2
    15    20    23    1
    16    23    24    1
    17    24    25   am
    18    25    26    2
    19    25    28    1
    20    28    29   ar
    21    29    30   ar
    22    30    31   ar
    23    31    32    1
    24    31    33   ar
    25    33    34   ar
    26    11    12    1
    27    12    13   ar
    28    13    14   ar
    29    14    15   ar
    30    15    16   ar
    31    16    17   ar
    32    17     2    1
    33    10     5   ar
    34    34    28   ar
    35    17    12   ar
    36    19    22    1
    37    24    27    1
@<TRIPOS>MOLECULE
*****
 34 37 0 0 0
SMALL
GASTEIGER

@<TRIPOS>ATOM
      1 C          64.4555   88.6739   15.0242 C.3     1  UNL1        0.1203
      2 N          63.9335   87.6779   14.0315 N.am    1  UNL1       -0.2537
      3 C          63.9982   86.2407   14.4560 C.2     1  UNL1        0.2525
      4 O          64.5763   85.9895   15.8171 O.2     1  UNL1       -0.2696
      5 C          63.5612   85.0213   13.6995 C.ar    1  UNL1        0.0503
      6 C          63.8030   83.7699   14.4902 C.ar    1  UNL1        0.0042
      7 C          63.4351   82.4352   13.9129 C.ar    1  UNL1        0.0001
      8 C          62.8255   82.3520   12.5449 C.ar    1  UNL1       -0.0003
      9 C          62.5837   83.6035   11.7542 C.ar    1  UNL1       -0.0038
     10 C          62.9515   84.9382   12.3315 C.ar    1  UNL1       -0.0123
     11 C          62.6284   86.0537   11.3822 C.3     1  UNL1        0.0655
     12 C          62.8349   87.5280   11.5664 C.ar    1  UNL1       -0.0031
     13 C          62.3723   88.3004   10.3667 C.ar    1  UNL1       -0.0027
     14 C          62.4904   89.7956   10.3461 C.ar    1  UNL1       -0.0002
     15 C          63.0712   90.5184   11.5251 C.ar    1  UNL1        0.0013
     16 C          63.5339   89.7459   12.7248 C.ar    1  UNL1        0.0146
     17 C          63.4158   88.2508   12.7455 C.ar    1  UNL1        0.0505
     18 C          62.0178   85.6404   10.0759 C.3     1  UNL1        0.0981
     19 N          60.7303   86.2606    9.6201 N.am    1  UNL1       -0.3023
     20 C          60.2994   86.1286    8.1894 C.2     1  UNL1        0.2426
     21 O          61.1560   85.3765    7.2145 O.2     1  UNL1       -0.2733
     22 H          60.1680   86.7542   10.2600 H       1  UNL1        0.1495
     23 C          59.0119   86.7488    7.7337 C.3     1  UNL1        0.1759
     24 N          59.0232   87.7993    6.6630 N.am    1  UNL1       -0.2931
     25 C          59.3975   89.2117    7.0020 C.2     1  UNL1        0.2462
     26 O          59.7605   89.5736    8.4117 O.2     1  UNL1       -0.2701
     27 H          58.7849   87.5618    5.7378 H       1  UNL1        0.1502
     28 C          59.4087   90.2622    5.9314 C.ar    1  UNL1        0.0535
     29 C          58.1262   90.9140    5.5067 C.ar    1  UNL1        0.0068
     30 C          58.1374   91.9646    4.4360 C.ar    1  UNL1        0.0298
     31 C          59.4312   92.3633    3.7900 C.ar    1  UNL1        0.1401
     32 F          59.4424   93.4138    2.7194 F       1  UNL1       -0.2042
     33 C          60.7137   91.7115    4.2147 C.ar    1  UNL1        0.0298
     34 C          60.7025   90.6609    5.2854 C.ar    1  UNL1        0.0068
@<TRIPOS>BOND
     1     1     2    1
     2     2     3   am
     3     3     4    2
     4     3     5    1
     5     5     6   ar
     6     6     7   ar
     7     7     8   ar
     8     8     9   ar
     9     9    10   ar
    10    10    11    1
    11    11    18    1
    12    18    19    1
    13    19    20   am
    14    20    21    2
    15    20    23    1
    16    23    24    1
    17    24    25   am
    18    25    26    2
    19    25    28    1
    20    28    29   ar
    21    29    30   ar
    22    30    31   ar
    23    31    32    1
    24    31    33   ar
    25    33    34   ar
    26    11    12    1
    27    12    13   ar
    28    13    14   ar
    29    14    15   ar
    30    15    16   ar
    31    16    17   ar
    32    17     2    1
    33    10     5   ar
    34    34    28   ar
    35    17    12   ar
    36    19    22    1
    37    24    27    1
@<TRIPOS>MOLECULE
*****
 34 37 0 0 0
SMALL
GASTEIGER

@<TRIPOS>ATOM
      1 C          64.4820   81.7549   12.7542 C.3     1  UNL1        0.1203
      2 N          63.9734   83.1101   12.3607 N.am    1  UNL1       -0.2537
      3 C          63.5968   83.2701   10.9176 C.2     1  UNL1        0.2525
      4 O          63.7786   82.0538   10.0588 O.2     1  UNL1       -0.2696
      5 C          63.0625   84.4856   10.2196 C.ar    1  UNL1        0.0503
      6 C          62.8156   84.2178    8.7645 C.ar    1  UNL1        0.0042
      7 C          62.2790   85.3058    7.8823 C.ar    1  UNL1        0.0001
      8 C          61.9892   86.6615    8.4551 C.ar    1  UNL1       -0.0003
      9 C          62.2361   86.9292    9.9102 C.ar    1  UNL1       -0.0038
     10 C          62.7728   85.8413   10.7924 C.ar    1  UNL1       -0.0123
     11 C          62.9458   86.3163   12.2047 C.3     1  UNL1        0.0655
     12 C          63.4513   85.5530   13.3929 C.ar    1  UNL1       -0.0031
     13 C          63.4668   86.4063   14.6264 C.ar    1  UNL1       -0.0027
     14 C          63.9396   85.8328   15.9293 C.ar    1  UNL1       -0.0002
     15 C          64.3969   84.4060   15.9987 C.ar    1  UNL1        0.0013
     16 C          64.3815   83.5526   14.7652 C.ar    1  UNL1        0.0146
     17 C          63.9087   84.1261   13.4623 C.ar    1  UNL1        0.0505
     18 C          62.5627   87.7434   12.4629 C.3     1  UNL1        0.0981
     19 N          63.6270   88.7853   12.6410 N.am    1  UNL1       -0.3023
     20 C          63.5188   89.7853   13.7538 C.2     1  UNL1        0.2426
     21 O          62.3464   89.7435   14.6884 O.2     1  UNL1       -0.2733
     22 H          64.3966   88.8128   12.0276 H       1  UNL1        0.1495
     23 C          64.5832   90.8272   13.9318 C.3     1  UNL1        0.1759
     24 N          64.9441   91.7331   12.7920 N.am    1  UNL1       -0.2931
     25 C          66.3648   92.1774   12.6080 C.2     1  UNL1        0.2462
     26 O          67.4248   91.7158   13.5638 O.2     1  UNL1       -0.2701
     27 H          64.2484   92.0361   12.1647 H       1  UNL1        0.1502
     28 C          66.7257   93.0833   11.4682 C.ar    1  UNL1        0.0535
     29 C          66.2395   94.5023   11.4550 C.ar    1  UNL1        0.0068
     30 C          66.6004   95.4082   10.3152 C.ar    1  UNL1        0.0298
     31 C          67.4474   94.8951    9.1886 C.ar    1  UNL1        0.1401
     32 F          67.8083   95.8010    8.0488 F       1  UNL1       -0.2042
     33 C          67.9336   93.4761    9.2017 C.ar    1  UNL1        0.0298
     34 C          67.5728   92.5702   10.3415 C.ar    1  UNL1        0.0068
@<TRIPOS>BOND
     1     1     2    1
     2     2     3   am
     3     3     4    2
     4     3     5    1
     5     5     6   ar
     6     6     7   ar
     7     7     8   ar
     8     8     9   ar
     9     9    10   ar
    10    10    11    1
    11    11    18    1
    12    18    19    1
    13    19    20   am
    14    20    21    2
    15    20    23    1
    16    23    24    1
    17    24    25   am
    18    25    26    2
    19    25    28    1
    20    28    29   ar
    21    29    30   ar
    22    30    31   ar
    23    31    32    1
    24    31    33   ar
    25    33    34   ar
    26    11    12    1
    27    12    13   ar
    28    13    14   ar
    29    14    15   ar
    30    15    16   ar
    31    16    17   ar
    32    17     2    1
    33    10     5   ar
    34    34    28   ar
    35    17    12   ar
    36    19    22    1
    37    24    27    1
@<TRIPOS>MOLECULE
*****
 34 37 0 0 0
SMALL
GASTEIGER

@<TRIPOS>ATOM
      1 C          63.9074   82.1658   10.0744 C.3     1  UNL1        0.1203
      2 N          63.6916   83.3898   10.9141 N.am    1  UNL1       -0.2537
      3 C          64.1005   83.2726   12.3526 C.2     1  UNL1        0.2525
      4 O          64.6711   81.9469   12.7610 O.2     1  UNL1       -0.2696
      5 C          64.0141   84.3058   13.4366 C.ar    1  UNL1        0.0503
      6 C          64.5335   83.7768   14.7405 C.ar    1  UNL1        0.0042
      7 C          64.5364   84.6533   15.9578 C.ar    1  UNL1        0.0001
      8 C          64.0198   86.0589   15.8710 C.ar    1  UNL1       -0.0003
      9 C          63.5004   86.5879   14.5671 C.ar    1  UNL1       -0.0038
     10 C          63.4976   85.7114   13.3499 C.ar    1  UNL1       -0.0123
     11 C          62.9398   86.4309   12.1577 C.3     1  UNL1        0.0655
     12 C          62.7608   85.9226   10.7579 C.ar    1  UNL1       -0.0031
     13 C          62.1642   86.9709    9.8662 C.ar    1  UNL1       -0.0027
     14 C          61.9021   86.6658    8.4212 C.ar    1  UNL1       -0.0002
     15 C          62.2367   85.3124    7.8677 C.ar    1  UNL1        0.0013
     16 C          62.8333   84.2641    8.7594 C.ar    1  UNL1        0.0146
     17 C          63.0954   84.5692   10.2045 C.ar    1  UNL1        0.0505
     18 C          62.5033   87.8459   12.3971 C.3     1  UNL1        0.0981
     19 N          63.5278   88.9289   12.5634 N.am    1  UNL1       -0.3023
     20 C          63.4067   89.9088   13.6927 C.2     1  UNL1        0.2426
     21 O          62.2614   89.8057   14.6556 O.2     1  UNL1       -0.2733
     22 H          64.2796   88.9966   11.9314 H       1  UNL1        0.1495
     23 C          64.4312   90.9918   13.8589 C.3     1  UNL1        0.1759
     24 N          64.9585   91.7164   12.6560 N.am    1  UNL1       -0.2931
     25 C          65.8010   92.9451   12.8302 C.2     1  UNL1        0.2462
     26 O          66.1162   93.4493   14.2073 O.2     1  UNL1       -0.2701
     27 H          64.7516   91.3855   11.7521 H       1  UNL1        0.1502
     28 C          66.3283   93.6697   11.6273 C.ar    1  UNL1        0.0535
     29 C          67.0040   92.9052   10.5277 C.ar    1  UNL1        0.0068
     30 C          67.5313   93.6297    9.3248 C.ar    1  UNL1        0.0298
     31 C          67.3828   95.1188    9.2215 C.ar    1  UNL1        0.1401
     32 F          67.9101   95.8434    8.0186 F       1  UNL1       -0.2042
     33 C          66.7071   95.8833   10.3210 C.ar    1  UNL1        0.0298
     34 C          66.1798   95.1588   11.5239 C.ar    1  UNL1        0.0068
@<TRIPOS>BOND
     1     1     2    1
     2     2     3   am
     3     3     4    2
     4     3     5    1
     5     5     6   ar
     6     6     7   ar
     7     7     8   ar
     8     8     9   ar
     9     9    10   ar
    10    10    11    1
    11    11    18    1
    12    18    19    1
    13    19    20   am
    14    20    21    2
    15    20    23    1
    16    23    24    1
    17    24    25   am
    18    25    26    2
    19    25    28    1
    20    28    29   ar
    21    29    30   ar
    22    30    31   ar
    23    31    32    1
    24    31    33   ar
    25    33    34   ar
    26    11    12    1
    27    12    13   ar
    28    13    14   ar
    29    14    15   ar
    30    15    16   ar
    31    16    17   ar
    32    17     2    1
    33    10     5   ar
    34    34    28   ar
    35    17    12   ar
    36    19    22    1
    37    24    27    1
@<TRIPOS>MOLECULE
*****
 34 37 0 0 0
SMALL
GASTEIGER

@<TRIPOS>ATOM
      1 C          64.6247   82.2696   12.6743 C.3     1  UNL1        0.1203
      2 N          64.0191   83.5593   12.2056 N.am    1  UNL1       -0.2537
      3 C          63.5343   83.5729   10.7862 C.2     1  UNL1        0.2525
      4 O          63.7193   82.2948   10.0231 O.2     1  UNL1       -0.2696
      5 C          62.8891   84.6954   10.0288 C.ar    1  UNL1        0.0503
      6 C          62.5552   84.2883    8.6243 C.ar    1  UNL1        0.0042
      7 C          61.9015   85.2674    7.6949 C.ar    1  UNL1        0.0001
      8 C          61.5816   86.6538    8.1701 C.ar    1  UNL1       -0.0003
      9 C          61.9155   87.0609    9.5746 C.ar    1  UNL1       -0.0038
     10 C          62.5692   86.0818   10.5040 C.ar    1  UNL1       -0.0123
     11 C          62.8156   86.6879   11.8538 C.3     1  UNL1        0.0655
     12 C          63.4427   86.0575   13.0618 C.ar    1  UNL1       -0.0031
     13 C          63.4996   87.0169   14.2134 C.ar    1  UNL1       -0.0027
     14 C          64.0921   86.5839   15.5217 C.ar    1  UNL1       -0.0002
     15 C          64.6277   85.1916   15.6783 C.ar    1  UNL1        0.0013
     16 C          64.5708   84.2322   14.5266 C.ar    1  UNL1        0.0146
     17 C          63.9783   84.6651   13.2184 C.ar    1  UNL1        0.0505
     18 C          62.3769   88.1130   12.0171 C.3     1  UNL1        0.0981
     19 N          63.3169   89.2310   11.6758 N.am    1  UNL1       -0.3023
     20 C          62.7875   90.4981   11.0724 C.2     1  UNL1        0.2426
     21 O          61.3183   90.6473   10.8101 O.2     1  UNL1       -0.2733
     22 H          64.2813   89.1332   11.8479 H       1  UNL1        0.1495
     23 C          63.7276   91.6161   10.7311 C.3     1  UNL1        0.1759
     24 N          64.9201   91.8850   11.6005 N.am    1  UNL1       -0.2931
     25 C          64.8023   91.7707   13.0914 C.2     1  UNL1        0.2462
     26 O          63.4921   91.3875   13.7131 O.2     1  UNL1       -0.2701
     27 H          65.7800   92.1365   11.1924 H       1  UNL1        0.1502
     28 C          65.9948   92.0396   13.9607 C.ar    1  UNL1        0.0535
     29 C          65.8031   92.4603   15.3877 C.ar    1  UNL1        0.0068
     30 C          66.9956   92.7292   16.2570 C.ar    1  UNL1        0.0298
     31 C          68.3798   92.5773   15.6994 C.ar    1  UNL1        0.1401
     32 F          69.5723   92.8462   16.5687 F       1  UNL1       -0.2042
     33 C          68.5715   92.1566   14.2724 C.ar    1  UNL1        0.0298
     34 C          67.3791   91.8877   13.4031 C.ar    1  UNL1        0.0068
@<TRIPOS>BOND
     1     1     2    1
     2     2     3   am
     3     3     4    2
     4     3     5    1
     5     5     6   ar
     6     6     7   ar
     7     7     8   ar
     8     8     9   ar
     9     9    10   ar
    10    10    11    1
    11    11    18    1
    12    18    19    1
    13    19    20   am
    14    20    21    2
    15    20    23    1
    16    23    24    1
    17    24    25   am
    18    25    26    2
    19    25    28    1
    20    28    29   ar
    21    29    30   ar
    22    30    31   ar
    23    31    32    1
    24    31    33   ar
    25    33    34   ar
    26    11    12    1
    27    12    13   ar
    28    13    14   ar
    29    14    15   ar
    30    15    16   ar
    31    16    17   ar
    32    17     2    1
    33    10     5   ar
    34    34    28   ar
    35    17    12   ar
    36    19    22    1
    37    24    27    1
@<TRIPOS>MOLECULE
*****
 34 37 0 0 0
SMALL
GASTEIGER

@<TRIPOS>ATOM
      1 C          63.9230   82.1613   10.0694 C.3     1  UNL1        0.1203
      2 N          63.6853   83.4383   10.8195 N.am    1  UNL1       -0.2537
      3 C          64.1256   83.4425   12.2534 C.2     1  UNL1        0.2525
      4 O          64.7454   82.1691   12.7476 O.2     1  UNL1       -0.2696
      5 C          64.0281   84.5517   13.2585 C.ar    1  UNL1        0.0503
      6 C          64.5891   84.1385   14.5869 C.ar    1  UNL1        0.0042
      7 C          64.5882   85.1042   15.7346 C.ar    1  UNL1        0.0001
      8 C          64.0262   86.4832   15.5540 C.ar    1  UNL1       -0.0003
      9 C          63.4652   86.8964   14.2257 C.ar    1  UNL1       -0.0038
     10 C          63.4661   85.9307   13.0780 C.ar    1  UNL1       -0.0123
     11 C          62.8629   86.5410   11.8476 C.3     1  UNL1        0.0655
     12 C          62.6726   85.9232   10.4941 C.ar    1  UNL1       -0.0031
     13 C          62.0262   86.8828    9.5395 C.ar    1  UNL1       -0.0027
     14 C          61.7457   86.4617    8.1275 C.ar    1  UNL1       -0.0002
     15 C          62.1117   85.0809    7.6699 C.ar    1  UNL1        0.0013
     16 C          62.7582   84.1212    8.6245 C.ar    1  UNL1        0.0146
     17 C          63.0387   84.5424   10.0365 C.ar    1  UNL1        0.0505
     18 C          62.3870   87.9564   11.9897 C.3     1  UNL1        0.0981
     19 N          63.2961   89.0934   11.6278 N.am    1  UNL1       -0.3023
     20 C          62.7189   90.3902   11.1431 C.2     1  UNL1        0.2426
     21 O          61.2326   90.5502   11.0202 O.2     1  UNL1       -0.2733
     22 H          64.2717   88.9884   11.7085 H       1  UNL1        0.1495
     23 C          63.6281   91.5271   10.7812 C.3     1  UNL1        0.1759
     24 N          64.8246   91.8309   11.6334 N.am    1  UNL1       -0.2931
     25 C          64.7352   91.7020   13.1251 C.2     1  UNL1        0.2462
     26 O          63.4493   91.2692   13.7647 O.2     1  UNL1       -0.2701
     27 H          65.6686   92.1150   11.2135 H       1  UNL1        0.1502
     28 C          65.9317   92.0058   13.9772 C.ar    1  UNL1        0.0535
     29 C          67.3100   91.9255   13.3907 C.ar    1  UNL1        0.0068
     30 C          68.5065   92.2294   14.2428 C.ar    1  UNL1        0.0298
     31 C          68.3247   92.6135   15.6814 C.ar    1  UNL1        0.1401
     32 F          69.5212   92.9174   16.5335 F       1  UNL1       -0.2042
     33 C          66.9464   92.6938   16.2679 C.ar    1  UNL1        0.0298
     34 C          65.7499   92.3900   15.4158 C.ar    1  UNL1        0.0068
@<TRIPOS>BOND
     1     1     2    1
     2     2     3   am
     3     3     4    2
     4     3     5    1
     5     5     6   ar
     6     6     7   ar
     7     7     8   ar
     8     8     9   ar
     9     9    10   ar
    10    10    11    1
    11    11    18    1
    12    18    19    1
    13    19    20   am
    14    20    21    2
    15    20    23    1
    16    23    24    1
    17    24    25   am
    18    25    26    2
    19    25    28    1
    20    28    29   ar
    21    29    30   ar
    22    30    31   ar
    23    31    32    1
    24    31    33   ar
    25    33    34   ar
    26    11    12    1
    27    12    13   ar
    28    13    14   ar
    29    14    15   ar
    30    15    16   ar
    31    16    17   ar
    32    17     2    1
    33    10     5   ar
    34    34    28   ar
    35    17    12   ar
    36    19    22    1
    37    24    27    1
