@<TRIPOS>MOLECULE
*****
 38 42 0 0 0
SMALL
GASTEIGER

@<TRIPOS>ATOM
      1 C          63.3025   86.9380   13.4725 C.3     1  UNL1        0.1065
      2 C          63.5211   89.5235   13.3410 C.2     1  UNL1        0.2475
      3 O          62.4944   89.6655   14.4254 O.2     1  UNL1       -0.2701
      4 N          63.9251   88.1598   12.8645 N.am    1  UNL1       -0.2999
      5 H          64.5989   88.0667   12.1528 H       1  UNL1        0.1498
      6 C          65.3887   93.1890   11.5172 C.ar    1  UNL1        0.0863
      7 C          64.3939   92.3852   10.7335 C.ar    1  UNL1        0.0308
      8 C          63.7713   91.1634   11.3414 C.ar    1  UNL1        0.0643
      9 CL         62.7765   90.3596   10.5576 Cl      1  UNL1       -0.0820
     10 C          64.1436   90.7454   12.7330 C.ar    1  UNL1        0.0745
     11 C          65.1384   91.5492   13.5167 C.ar    1  UNL1        0.0643
     12 CL         65.5107   91.1312   14.9084 Cl      1  UNL1       -0.0820
     13 C          65.7610   92.7710   12.9088 C.ar    1  UNL1        0.0308
     14 C          67.6708   96.4786    8.0746 C.3     1  UNL1        0.0756
     15 C          67.0603   95.9230    9.3270 C.ar    1  UNL1        0.1613
     16 N          66.8784   96.6593   10.6210 N.ar    1  UNL1       -0.2073
     17 C          66.2301   95.7248   11.5990 C.ar    1  UNL1        0.2013
     18 N          66.0113   94.4109   10.9093 N.ar    1  UNL1       -0.2083
     19 N          66.5243   94.5333    9.5052 N.ar    1  UNL1       -0.1487
     20 C          62.6219   85.9283   12.5967 C.3     1  UNL1        0.1537
     21 C          61.9205   86.3710   11.3469 C.2     1  UNL1        0.3564
     22 N          61.7933   85.5789   10.0794 N.2     1  UNL1       -0.0350
     23 C          61.0173   86.4020    9.0944 C.2     1  UNL1        0.2278
     24 C          60.5860   86.1350    7.6828 C.2     1  UNL1        0.0251
     25 C          60.9384   84.8342    7.0240 C.3     1  UNL1        0.0351
     26 C          59.8023   87.1689    6.9298 C.2     1  UNL1        0.0070
     27 C          59.4499   88.4696    7.5884 C.2     1  UNL1        0.0436
     28 CL         58.6662   89.5035    6.8354 Cl      1  UNL1       -0.0864
     29 C          59.8811   88.7366    9.0000 C.3     1  UNL1        0.1155
     30 C          60.6648   87.7028    9.7530 C.2     1  UNL1        0.2180
     31 N          61.2230   87.6836   11.1451 N.2     1  UNL1       -0.0385
     32 C          62.6428   84.4758   12.9706 C.ar    1  UNL1       -0.0068
     33 C          62.4967   84.0689   14.4069 C.ar    1  UNL1       -0.0035
     34 C          62.5175   82.6164   14.7810 C.ar    1  UNL1        0.0020
     35 C          62.6844   81.5708   13.7185 C.ar    1  UNL1        0.0296
     36 C          62.8305   81.9776   12.2822 C.ar    1  UNL1        0.1398
     37 F          62.9974   80.9320   11.2197 F       1  UNL1       -0.2042
     38 C          62.8097   83.4301   11.9082 C.ar    1  UNL1        0.0260
@<TRIPOS>BOND
     1    14    15    1
     2    15    16   ar
     3    16    17   ar
     4    17    18   ar
     5    18     6    1
     6     6     7   ar
     7     7     8   ar
     8     8     9    1
     9     8    10   ar
    10    10     2    1
    11     2     3    2
    12     2     4   am
    13     4     1    1
    14    20     1    1
    15    20    32    1
    16    32    33   ar
    17    33    34   ar
    18    34    35   ar
    19    35    36   ar
    20    36    37    1
    21    36    38   ar
    22    20    21    1
    23    21    22    2
    24    22    23    1
    25    23    24    2
    26    24    25    1
    27    24    26    1
    28    26    27    2
    29    27    28    1
    30    27    29    1
    31    29    30    1
    32    30    31    2
    33    10    11   ar
    34    11    12    1
    35    11    13   ar
    36    18    19   ar
    37    19    15   ar
    38    13     6   ar
    39    38    32   ar
    40    31    21    1
    41    30    23    1
    42     4     5    1
@<TRIPOS>MOLECULE
*****
 38 42 0 0 0
SMALL
GASTEIGER

@<TRIPOS>ATOM
      1 C          62.8596   87.0431   13.2990 C.3     1  UNL1        0.1065
      2 C          63.3476   89.5945   13.2532 C.2     1  UNL1        0.2475
      3 O          62.5008   89.7785   14.4776 O.2     1  UNL1       -0.2701
      4 N          63.5270   88.2268   12.6639 N.am    1  UNL1       -0.2999
      5 H          64.0829   88.1061   11.8603 H       1  UNL1        0.1498
      6 C          65.3499   93.1458   11.3481 C.ar    1  UNL1        0.0863
      7 C          64.3607   92.3336   10.5660 C.ar    1  UNL1        0.0308
      8 C          63.6933   91.1498   11.2010 C.ar    1  UNL1        0.0643
      9 CL         62.7041   90.3376   10.4188 Cl      1  UNL1       -0.0820
     10 C          64.0151   90.7783   12.6182 C.ar    1  UNL1        0.0745
     11 C          65.0042   91.5905   13.4003 C.ar    1  UNL1        0.0643
     12 CL         65.3260   91.2189   14.8175 Cl      1  UNL1       -0.0820
     13 C          65.6717   92.7743   12.7653 C.ar    1  UNL1        0.0308
     14 C          67.6577   96.3068    7.8036 C.3     1  UNL1        0.0756
     15 C          67.0781   95.7825    9.0841 C.ar    1  UNL1        0.1613
     16 N          67.0109   96.5200   10.3884 N.ar    1  UNL1       -0.2073
     17 C          66.3553   95.6221   11.3953 C.ar    1  UNL1        0.2013
     18 N          66.0174   94.3296   10.7132 N.ar    1  UNL1       -0.2083
     19 N          66.4641   94.4288    9.2848 N.ar    1  UNL1       -0.1487
     20 C          62.8750   85.7126   12.6066 C.3     1  UNL1        0.1537
     21 C          62.4763   85.6131   11.1640 C.2     1  UNL1        0.3564
     22 N          61.2365   86.1927   10.5500 N.2     1  UNL1       -0.0350
     23 C          61.2414   85.8544    9.0886 C.2     1  UNL1        0.2278
     24 C          60.2747   86.1626    7.9839 C.2     1  UNL1        0.0251
     25 C          59.0319   86.9513    8.2729 C.3     1  UNL1        0.0351
     26 C          60.5509   85.6822    6.5899 C.2     1  UNL1        0.0070
     27 C          61.7936   84.8936    6.3008 C.2     1  UNL1        0.0436
     28 CL         62.0697   84.4131    4.9069 Cl      1  UNL1       -0.0864
     29 C          62.7603   84.5854    7.4056 C.3     1  UNL1        0.1155
     30 C          62.4842   85.0658    8.7995 C.2     1  UNL1        0.2180
     31 N          63.2474   84.9167   10.0822 N.2     1  UNL1       -0.0385
     32 C          63.2892   84.4815   13.3568 C.ar    1  UNL1       -0.0068
     33 C          64.1968   84.5974   14.5454 C.ar    1  UNL1       -0.0035
     34 C          64.6111   83.3663   15.2957 C.ar    1  UNL1        0.0020
     35 C          64.1177   82.0193   14.8574 C.ar    1  UNL1        0.0296
     36 C          63.2100   81.9034   13.6688 C.ar    1  UNL1        0.1398
     37 F          62.7166   80.5564   13.2304 F       1  UNL1       -0.2042
     38 C          62.7958   83.1344   12.9185 C.ar    1  UNL1        0.0260
@<TRIPOS>BOND
     1    14    15    1
     2    15    16   ar
     3    16    17   ar
     4    17    18   ar
     5    18     6    1
     6     6     7   ar
     7     7     8   ar
     8     8     9    1
     9     8    10   ar
    10    10     2    1
    11     2     3    2
    12     2     4   am
    13     4     1    1
    14    20     1    1
    15    20    32    1
    16    32    33   ar
    17    33    34   ar
    18    34    35   ar
    19    35    36   ar
    20    36    37    1
    21    36    38   ar
    22    20    21    1
    23    21    22    2
    24    22    23    1
    25    23    24    2
    26    24    25    1
    27    24    26    1
    28    26    27    2
    29    27    28    1
    30    27    29    1
    31    29    30    1
    32    30    31    2
    33    10    11   ar
    34    11    12    1
    35    11    13   ar
    36    18    19   ar
    37    19    15   ar
    38    13     6   ar
    39    38    32   ar
    40    31    21    1
    41    30    23    1
    42     4     5    1
@<TRIPOS>MOLECULE
*****
 38 42 0 0 0
SMALL
GASTEIGER

@<TRIPOS>ATOM
      1 C          60.5146   89.2955   11.6207 C.3     1  UNL1        0.1065
      2 C          62.9023   90.3129   11.7377 C.2     1  UNL1        0.2475
      3 O          63.0328   90.1780   10.2494 O.2     1  UNL1       -0.2701
      4 N          61.6433   89.8717   12.4233 N.am    1  UNL1       -0.2999
      5 H          61.5577   89.9603   13.4001 H       1  UNL1        0.1498
      6 C          66.2884   92.0414   14.1454 C.ar    1  UNL1        0.0863
      7 C          66.0033   92.5647   12.7689 C.ar    1  UNL1        0.0308
      8 C          64.8746   91.9886   11.9663 C.ar    1  UNL1        0.0643
      9 CL         64.5896   92.5120   10.5898 Cl      1  UNL1       -0.0820
     10 C          64.0310   90.8891   12.5402 C.ar    1  UNL1        0.0745
     11 C          64.3161   90.3657   13.9168 C.ar    1  UNL1        0.0643
     12 CL         63.4725   89.2662   14.4907 Cl      1  UNL1       -0.0820
     13 C          65.4448   90.9419   14.7193 C.ar    1  UNL1        0.0308
     14 C          69.7532   95.4469   16.2140 C.3     1  UNL1        0.0756
     15 C          69.0096   94.1827   15.8989 C.ar    1  UNL1        0.1613
     16 N          69.2982   92.8251   16.4674 N.ar    1  UNL1       -0.2073
     17 C          68.3140   91.8576   15.8798 C.ar    1  UNL1        0.2013
     18 N          67.4171   92.6175   14.9480 N.ar    1  UNL1       -0.2083
     19 N          67.8470   94.0544   14.9598 N.ar    1  UNL1       -0.1487
     20 C          60.7338   88.0613   10.7970 C.3     1  UNL1        0.1537
     21 C          61.5228   86.9155   11.3580 C.2     1  UNL1        0.3564
     22 N          62.4956   86.9891   12.4974 N.2     1  UNL1       -0.0350
     23 C          63.0515   85.6140   12.7217 C.2     1  UNL1        0.2278
     24 C          64.0494   85.0835   13.7079 C.2     1  UNL1        0.0251
     25 C          64.6787   86.0068   14.7087 C.3     1  UNL1        0.0351
     26 C          64.4180   83.6295   13.6933 C.2     1  UNL1        0.0070
     27 C          63.7888   82.7062   12.6926 C.2     1  UNL1        0.0436
     28 CL         64.1574   81.2522   12.6781 Cl      1  UNL1       -0.0864
     29 C          62.7909   83.2368   11.7064 C.3     1  UNL1        0.1155
     30 C          62.4222   84.6907   11.7209 C.2     1  UNL1        0.2180
     31 N          61.4774   85.4951   10.8781 N.2     1  UNL1       -0.0385
     32 C          60.1639   87.9727    9.4123 C.ar    1  UNL1       -0.0068
     33 C          59.6354   86.6654    8.9010 C.ar    1  UNL1       -0.0035
     34 C          59.0655   86.5767    7.5162 C.ar    1  UNL1        0.0020
     35 C          59.0242   87.7955    6.6428 C.ar    1  UNL1        0.0296
     36 C          59.5528   89.1029    7.1541 C.ar    1  UNL1        0.1398
     37 F          59.5115   90.3217    6.2807 F       1  UNL1       -0.2042
     38 C          60.1226   89.1915    8.5388 C.ar    1  UNL1        0.0260
@<TRIPOS>BOND
     1    14    15    1
     2    15    16   ar
     3    16    17   ar
     4    17    18   ar
     5    18     6    1
     6     6     7   ar
     7     7     8   ar
     8     8     9    1
     9     8    10   ar
    10    10     2    1
    11     2     3    2
    12     2     4   am
    13     4     1    1
    14    20     1    1
    15    20    32    1
    16    32    33   ar
    17    33    34   ar
    18    34    35   ar
    19    35    36   ar
    20    36    37    1
    21    36    38   ar
    22    20    21    1
    23    21    22    2
    24    22    23    1
    25    23    24    2
    26    24    25    1
    27    24    26    1
    28    26    27    2
    29    27    28    1
    30    27    29    1
    31    29    30    1
    32    30    31    2
    33    10    11   ar
    34    11    12    1
    35    11    13   ar
    36    18    19   ar
    37    19    15   ar
    38    13     6   ar
    39    38    32   ar
    40    31    21    1
    41    30    23    1
    42     4     5    1
@<TRIPOS>MOLECULE
*****
 38 42 0 0 0
SMALL
GASTEIGER

@<TRIPOS>ATOM
      1 C          60.5180   89.3361   11.5810 C.3     1  UNL1        0.1065
      2 C          62.9098   90.3425   11.7085 C.2     1  UNL1        0.2475
      3 O          63.0461   90.2071   10.2208 O.2     1  UNL1       -0.2701
      4 N          61.6457   89.9070   12.3886 N.am    1  UNL1       -0.2999
      5 H          61.5563   89.9959   13.3650 H       1  UNL1        0.1498
      6 C          66.2932   92.0553   14.1311 C.ar    1  UNL1        0.0863
      7 C          65.4532   90.9475   14.6943 C.ar    1  UNL1        0.0308
      8 C          64.3254   90.3766   13.8868 C.ar    1  UNL1        0.0643
      9 CL         63.4855   89.2688   14.4501 Cl      1  UNL1       -0.0820
     10 C          64.0376   90.9134   12.5160 C.ar    1  UNL1        0.0745
     11 C          64.8776   92.0212   11.9528 C.ar    1  UNL1        0.0643
     12 CL         64.5897   92.5581   10.5821 Cl      1  UNL1       -0.0820
     13 C          66.0054   92.5922   12.7604 C.ar    1  UNL1        0.0308
     14 C          69.7612   95.4461   16.2184 C.3     1  UNL1        0.0756
     15 C          69.0151   94.1848   15.8980 C.ar    1  UNL1        0.1613
     16 N          69.2981   92.8250   16.4643 N.ar    1  UNL1       -0.2073
     17 C          68.3129   91.8617   15.8713 C.ar    1  UNL1        0.2013
     18 N          67.4210   92.6263   14.9386 N.ar    1  UNL1       -0.2083
     19 N          67.8550   94.0620   14.9551 N.ar    1  UNL1       -0.1487
     20 C          60.7358   88.1024   10.7561 C.3     1  UNL1        0.1537
     21 C          61.5248   86.9558   11.3154 C.2     1  UNL1        0.3564
     22 N          62.4896   87.0255   12.4618 N.2     1  UNL1       -0.0350
     23 C          63.0486   85.6510   12.6814 C.2     1  UNL1        0.2278
     24 C          64.0415   85.1176   13.6711 C.2     1  UNL1        0.0251
     25 C          64.6610   86.0368   14.6818 C.3     1  UNL1        0.0351
     26 C          64.4151   83.6650   13.6501 C.2     1  UNL1        0.0070
     27 C          63.7957   82.7458   12.6395 C.2     1  UNL1        0.0436
     28 CL         64.1692   81.2932   12.6186 Cl      1  UNL1       -0.0864
     29 C          62.8027   83.2792   11.6498 C.3     1  UNL1        0.1155
     30 C          62.4292   84.7317   11.6708 C.2     1  UNL1        0.2180
     31 N          61.4874   85.5382   10.8265 N.2     1  UNL1       -0.0385
     32 C          60.1647   88.0153    9.3718 C.ar    1  UNL1       -0.0068
     33 C          59.6413   86.7071    8.8574 C.ar    1  UNL1       -0.0035
     34 C          59.0701   86.6198    7.4731 C.ar    1  UNL1        0.0020
     35 C          59.0224   87.8409    6.6032 C.ar    1  UNL1        0.0296
     36 C          59.5458   89.1492    7.1177 C.ar    1  UNL1        0.1398
     37 F          59.4980   90.3703    6.2478 F       1  UNL1       -0.2042
     38 C          60.1169   89.2364    8.5019 C.ar    1  UNL1        0.0260
@<TRIPOS>BOND
     1    14    15    1
     2    15    16   ar
     3    16    17   ar
     4    17    18   ar
     5    18     6    1
     6     6     7   ar
     7     7     8   ar
     8     8     9    1
     9     8    10   ar
    10    10     2    1
    11     2     3    2
    12     2     4   am
    13     4     1    1
    14    20     1    1
    15    20    32    1
    16    32    33   ar
    17    33    34   ar
    18    34    35   ar
    19    35    36   ar
    20    36    37    1
    21    36    38   ar
    22    20    21    1
    23    21    22    2
    24    22    23    1
    25    23    24    2
    26    24    25    1
    27    24    26    1
    28    26    27    2
    29    27    28    1
    30    27    29    1
    31    29    30    1
    32    30    31    2
    33    10    11   ar
    34    11    12    1
    35    11    13   ar
    36    18    19   ar
    37    19    15   ar
    38    13     6   ar
    39    38    32   ar
    40    31    21    1
    41    30    23    1
    42     4     5    1
@<TRIPOS>MOLECULE
*****
 38 42 0 0 0
SMALL
GASTEIGER

@<TRIPOS>ATOM
      1 C          61.6287   88.0541   10.6863 C.3     1  UNL1        0.1065
      2 C          62.7117   89.6755   12.4034 C.2     1  UNL1        0.2475
      3 O          61.3786   89.8659   13.0644 O.2     1  UNL1       -0.2701
      4 N          62.8367   88.7696   11.2144 N.am    1  UNL1       -0.2999
      5 H          63.7116   88.6446   10.7806 H       1  UNL1        0.1498
      6 C          66.3356   91.8219   13.9878 C.ar    1  UNL1        0.0863
      7 C          65.7424   92.2237   12.6700 C.ar    1  UNL1        0.0308
      8 C          64.5345   91.5082   12.1418 C.ar    1  UNL1        0.0643
      9 CL         63.9414   91.9101   10.8240 Cl      1  UNL1       -0.0820
     10 C          63.9196   90.3909   12.9316 C.ar    1  UNL1        0.0745
     11 C          64.5128   89.9892   14.2494 C.ar    1  UNL1        0.0643
     12 CL         63.8980   88.8719   15.0391 Cl      1  UNL1       -0.0820
     13 C          65.7208   90.7046   14.7775 C.ar    1  UNL1        0.0308
     14 C          69.4130   95.2401   16.5813 C.3     1  UNL1        0.0756
     15 C          68.9581   94.1084   15.7081 C.ar    1  UNL1        0.1613
     16 N          69.8468   93.1680   14.9494 N.ar    1  UNL1       -0.2073
     17 C          68.9726   92.1969   14.2126 C.ar    1  UNL1        0.2013
     18 N          67.5436   92.5374   14.5160 N.ar    1  UNL1       -0.2083
     19 N          67.5346   93.7187   15.4402 N.ar    1  UNL1       -0.1487
     20 C          61.7197   86.6045   10.3118 C.3     1  UNL1        0.1537
     21 C          62.1992   85.5990   11.3164 C.2     1  UNL1        0.3564
     22 N          62.7529   85.9063   12.6762 N.2     1  UNL1       -0.0350
     23 C          63.1050   84.6069   13.3377 C.2     1  UNL1        0.2278
     24 C          63.6883   84.2913   14.6831 C.2     1  UNL1        0.0251
     25 C          64.0245   85.4016   15.6341 C.3     1  UNL1        0.0351
     26 C          63.9354   82.8653   15.0776 C.2     1  UNL1        0.0070
     27 C          63.5992   81.7551   14.1267 C.2     1  UNL1        0.0436
     28 CL         63.8463   80.3291   14.5212 Cl      1  UNL1       -0.0864
     29 C          63.0160   82.0707   12.7813 C.3     1  UNL1        0.1155
     30 C          62.7688   83.4966   12.3868 C.2     1  UNL1        0.2180
     31 N          62.2090   84.1098   11.1376 N.2     1  UNL1       -0.0385
     32 C          61.3314   86.1604    8.9328 C.ar    1  UNL1       -0.0068
     33 C          59.9537   86.4464    8.4129 C.ar    1  UNL1       -0.0035
     34 C          59.5652   86.0023    7.0338 C.ar    1  UNL1        0.0020
     35 C          60.5545   85.2721    6.1746 C.ar    1  UNL1        0.0296
     36 C          61.9321   84.9860    6.6944 C.ar    1  UNL1        0.1398
     37 F          62.9214   84.2559    5.8353 F       1  UNL1       -0.2042
     38 C          62.3206   85.4302    8.0735 C.ar    1  UNL1        0.0260
@<TRIPOS>BOND
     1    14    15    1
     2    15    16   ar
     3    16    17   ar
     4    17    18   ar
     5    18     6    1
     6     6     7   ar
     7     7     8   ar
     8     8     9    1
     9     8    10   ar
    10    10     2    1
    11     2     3    2
    12     2     4   am
    13     4     1    1
    14    20     1    1
    15    20    32    1
    16    32    33   ar
    17    33    34   ar
    18    34    35   ar
    19    35    36   ar
    20    36    37    1
    21    36    38   ar
    22    20    21    1
    23    21    22    2
    24    22    23    1
    25    23    24    2
    26    24    25    1
    27    24    26    1
    28    26    27    2
    29    27    28    1
    30    27    29    1
    31    29    30    1
    32    30    31    2
    33    10    11   ar
    34    11    12    1
    35    11    13   ar
    36    18    19   ar
    37    19    15   ar
    38    13     6   ar
    39    38    32   ar
    40    31    21    1
    41    30    23    1
    42     4     5    1
@<TRIPOS>MOLECULE
*****
 38 42 0 0 0
SMALL
GASTEIGER

@<TRIPOS>ATOM
      1 C          64.8066   91.6271   13.6793 C.3     1  UNL1        0.1065
      2 C          63.4543   89.4198   13.4586 C.2     1  UNL1        0.2475
      3 O          62.2234   90.1251   13.9463 O.2     1  UNL1       -0.2701
      4 N          64.7458   90.1708   13.3251 N.am    1  UNL1       -0.2999
      5 H          65.5536   89.7079   13.0050 H       1  UNL1        0.1498
      6 C          63.2717   85.0508   12.3960 C.ar    1  UNL1        0.0863
      7 C          63.9009   85.4830   13.6873 C.ar    1  UNL1        0.0308
      8 C          63.9617   86.9393   14.0415 C.ar    1  UNL1        0.0643
      9 CL         64.5910   87.3714   15.3327 Cl      1  UNL1       -0.0820
     10 C          63.3934   87.9635   13.1044 C.ar    1  UNL1        0.0745
     11 C          62.7642   87.5313   11.8132 C.ar    1  UNL1        0.0643
     12 CL         62.1958   88.5555   10.8761 Cl      1  UNL1       -0.0820
     13 C          62.7033   86.0750   11.4590 C.ar    1  UNL1        0.0308
     14 C          62.4759   79.8393   12.6928 C.3     1  UNL1        0.0756
     15 C          62.8450   81.1991   12.1781 C.ar    1  UNL1        0.1613
     16 N          63.3891   81.5080   10.8149 N.ar    1  UNL1       -0.2073
     17 C          63.6151   82.9885   10.7306 C.ar    1  UNL1        0.2013
     18 N          63.2107   83.5945   12.0418 N.ar    1  UNL1       -0.2083
     19 N          62.7348   82.4887   12.9364 N.ar    1  UNL1       -0.1487
     20 C          66.0704   92.4023   13.4512 C.3     1  UNL1        0.1537
     21 C          66.3210   93.0545   12.1239 C.2     1  UNL1        0.3564
     22 N          67.2510   92.5557   11.0580 N.2     1  UNL1       -0.0350
     23 C          67.1903   93.5130    9.9048 C.2     1  UNL1        0.2278
     24 C          67.8911   93.5326    8.5787 C.2     1  UNL1        0.0251
     25 C          68.8587   92.4421    8.2255 C.3     1  UNL1        0.0351
     26 C          67.6243   94.6427    7.6058 C.2     1  UNL1        0.0070
     27 C          66.6568   95.7331    7.9590 C.2     1  UNL1        0.0436
     28 CL         66.3900   96.8433    6.9861 Cl      1  UNL1       -0.0864
     29 C          65.9560   95.7135    9.2850 C.3     1  UNL1        0.1155
     30 C          66.2228   94.6034   10.2580 C.2     1  UNL1        0.2180
     31 N          65.6855   94.3201   11.6295 N.2     1  UNL1       -0.0385
     32 C          67.0835   92.5252   14.5505 C.ar    1  UNL1       -0.0068
     33 C          67.5759   91.2973   15.2574 C.ar    1  UNL1       -0.0035
     34 C          68.5891   91.4201   16.3567 C.ar    1  UNL1        0.0020
     35 C          69.1099   92.7710   16.7491 C.ar    1  UNL1        0.0296
     36 C          68.6175   93.9989   16.0422 C.ar    1  UNL1        0.1398
     37 F          69.1383   95.3498   16.4345 F       1  UNL1       -0.2042
     38 C          67.6044   93.8761   14.9429 C.ar    1  UNL1        0.0260
@<TRIPOS>BOND
     1    14    15    1
     2    15    16   ar
     3    16    17   ar
     4    17    18   ar
     5    18     6    1
     6     6     7   ar
     7     7     8   ar
     8     8     9    1
     9     8    10   ar
    10    10     2    1
    11     2     3    2
    12     2     4   am
    13     4     1    1
    14    20     1    1
    15    20    32    1
    16    32    33   ar
    17    33    34   ar
    18    34    35   ar
    19    35    36   ar
    20    36    37    1
    21    36    38   ar
    22    20    21    1
    23    21    22    2
    24    22    23    1
    25    23    24    2
    26    24    25    1
    27    24    26    1
    28    26    27    2
    29    27    28    1
    30    27    29    1
    31    29    30    1
    32    30    31    2
    33    10    11   ar
    34    11    12    1
    35    11    13   ar
    36    18    19   ar
    37    19    15   ar
    38    13     6   ar
    39    38    32   ar
    40    31    21    1
    41    30    23    1
    42     4     5    1
@<TRIPOS>MOLECULE
*****
 38 42 0 0 0
SMALL
GASTEIGER

@<TRIPOS>ATOM
      1 C          64.2150   92.2931   10.4380 C.3     1  UNL1        0.1065
      2 C          62.9837   90.2109   11.3858 C.2     1  UNL1        0.2475
      3 O          61.7020   90.9891   11.4304 O.2     1  UNL1       -0.2701
      4 N          64.2402   90.8629   10.8897 N.am    1  UNL1       -0.2999
      5 H          65.0814   90.3522   10.8604 H       1  UNL1        0.1498
      6 C          63.0590   85.9204   12.7408 C.ar    1  UNL1        0.0863
      7 C          63.6957   86.9847   13.5846 C.ar    1  UNL1        0.0308
      8 C          63.6706   88.4148   13.1329 C.ar    1  UNL1        0.0643
      9 CL         64.3074   89.4790   13.9767 Cl      1  UNL1       -0.0820
     10 C          63.0088   88.7808   11.8375 C.ar    1  UNL1        0.0745
     11 C          62.3720   87.7165   10.9938 C.ar    1  UNL1        0.0643
     12 CL         61.7102   88.0824    9.6984 Cl      1  UNL1       -0.0820
     13 C          62.3971   86.2863   11.4454 C.ar    1  UNL1        0.0308
     14 C          62.6662   80.6548   12.7672 C.3     1  UNL1        0.0756
     15 C          62.9035   82.0700   13.2046 C.ar    1  UNL1        0.1613
     16 N          63.3416   82.5089   14.5703 N.ar    1  UNL1       -0.2073
     17 C          63.4532   84.0047   14.5628 C.ar    1  UNL1        0.2013
     18 N          63.0840   84.4902   13.1924 N.ar    1  UNL1       -0.2083
     19 N          62.7443   83.2945   12.3530 N.ar    1  UNL1       -0.1487
     20 C          65.2685   93.2486   10.9145 C.3     1  UNL1        0.1537
     21 C          65.9490   93.0191   12.2314 C.2     1  UNL1        0.3564
     22 N          65.2679   92.8210   13.5531 N.2     1  UNL1       -0.0350
     23 C          66.3280   92.6269   14.5963 C.2     1  UNL1        0.2278
     24 C          66.2491   92.3891   16.0752 C.2     1  UNL1        0.0251
     25 C          64.9128   92.3110   16.7522 C.3     1  UNL1        0.0351
     26 C          67.5067   92.2294   16.8773 C.2     1  UNL1        0.0070
     27 C          68.8429   92.3074   16.2004 C.2     1  UNL1        0.0436
     28 CL         70.1005   92.1477   17.0024 Cl      1  UNL1       -0.0864
     29 C          68.9218   92.5452   14.7215 C.3     1  UNL1        0.1155
     30 C          67.6643   92.7050   13.9194 C.2     1  UNL1        0.2180
     31 N          67.4301   92.9474   12.4578 N.2     1  UNL1       -0.0385
     32 C          65.6416   94.4337   10.0740 C.ar    1  UNL1       -0.0068
     33 C          64.7938   95.6708   10.1035 C.ar    1  UNL1       -0.0035
     34 C          65.1668   96.8560    9.2630 C.ar    1  UNL1        0.0020
     35 C          66.3876   96.8040    8.3930 C.ar    1  UNL1        0.0296
     36 C          67.2354   95.5669    8.3635 C.ar    1  UNL1        0.1398
     37 F          68.4562   95.5149    7.4935 F       1  UNL1       -0.2042
     38 C          66.8624   94.3818    9.2039 C.ar    1  UNL1        0.0260
@<TRIPOS>BOND
     1    14    15    1
     2    15    16   ar
     3    16    17   ar
     4    17    18   ar
     5    18     6    1
     6     6     7   ar
     7     7     8   ar
     8     8     9    1
     9     8    10   ar
    10    10     2    1
    11     2     3    2
    12     2     4   am
    13     4     1    1
    14    20     1    1
    15    20    32    1
    16    32    33   ar
    17    33    34   ar
    18    34    35   ar
    19    35    36   ar
    20    36    37    1
    21    36    38   ar
    22    20    21    1
    23    21    22    2
    24    22    23    1
    25    23    24    2
    26    24    25    1
    27    24    26    1
    28    26    27    2
    29    27    28    1
    30    27    29    1
    31    29    30    1
    32    30    31    2
    33    10    11   ar
    34    11    12    1
    35    11    13   ar
    36    18    19   ar
    37    19    15   ar
    38    13     6   ar
    39    38    32   ar
    40    31    21    1
    41    30    23    1
    42     4     5    1
