@<TRIPOS>MOLECULE
*****
 39 43 0 0 0
SMALL
GASTEIGER

@<TRIPOS>ATOM
      1 C          62.7501   84.8219   16.9017 C.3     1  UNL1        0.1332
      2 N          63.3278   85.7922   15.9144 N.ar    1  UNL1       -0.2975
      3 C          63.9353   85.4438   14.5880 C.ar    1  UNL1        0.2017
      4 N          64.3824   86.7176   13.9341 N.ar    1  UNL1       -0.2134
      5 C          64.0512   87.8532   14.8564 C.ar    1  UNL1        0.1030
      6 C          64.2589   89.3341   14.7398 C.ar    1  UNL1        0.0581
      7 C          63.8148   90.2432   15.8472 C.ar    1  UNL1        0.1469
      8 C          63.1630   89.6713   17.0712 C.ar    1  UNL1        0.0391
      9 C          62.9553   88.1903   17.1877 C.ar    1  UNL1        0.0219
     10 C          63.3994   87.2813   16.0803 C.ar    1  UNL1        0.0801
     11 N          64.0718   84.0639   14.0159 N.pl3   1  UNL1       -0.2839
     12 H          64.2811   83.3046   14.6066 H       1  UNL1        0.1550
     13 C          63.8895   83.8409   12.5439 C.ar    1  UNL1        0.0501
     14 C          64.4749   82.6236   11.8915 C.ar    1  UNL1        0.0147
     15 C          64.2925   82.4005   10.4195 C.ar    1  UNL1        0.0009
     16 C          63.5247   83.3948    9.5997 C.ar    1  UNL1       -0.0042
     17 C          62.9393   84.6120   10.2520 C.ar    1  UNL1       -0.0216
     18 C          63.1217   84.8351   11.7241 C.ar    1  UNL1        0.0104
     19 C          62.1715   85.6062    9.4322 C.3     1  UNL1        0.0190
     20 C          62.9969   85.2529    8.2306 C.3     1  UNL1        0.0044
     21 C          61.3460   85.9595   10.6338 C.3     1  UNL1        0.0044
     22 C          61.4037   86.6004    8.6125 C.3     1  UNL1        0.0044
     23 O          64.0225   91.7242   15.7307 O.3     1  UNL1       -0.4533
     24 C          65.3470   92.2623   15.2766 C.ar    1  UNL1        0.1485
     25 C          66.4328   92.5251   16.2776 C.ar    1  UNL1        0.0582
     26 C          67.7573   93.0633   15.8235 C.ar    1  UNL1        0.1021
     27 N          67.9959   93.3386   14.3684 N.ar    1  UNL1       -0.2406
     28 C          66.9101   93.0758   13.3674 C.ar    1  UNL1        0.1181
     29 C          65.5856   92.5377   13.8216 C.ar    1  UNL1        0.0597
     30 C          67.1487   93.3512   11.9123 C.ar    1  UNL1        0.1585
     31 N          67.6597   92.3681   10.9012 N.ar    1  UNL1       -0.2240
     32 C          67.7450   93.0673    9.5769 C.ar    1  UNL1        0.1214
     33 C          67.2867   94.4826    9.7695 C.ar    1  UNL1        0.1493
     34 N          66.9181   94.6580   11.2130 N.ar    1  UNL1       -0.3329
     35 H          66.5837   95.4855   11.6284 H       1  UNL1        0.1674
     36 C          67.2103   95.5372    8.7056 C.3     1  UNL1        0.4344
     37 F          67.1340   96.5918    7.6417 F       1  UNL1       -0.1644
     38 F          67.3341   94.4800    7.6487 F       1  UNL1       -0.1644
     39 F          67.0866   96.5944    9.7624 F       1  UNL1       -0.1644
@<TRIPOS>BOND
     1     1     2    1
     2     2     3   ar
     3     3    11    1
     4    11    13    1
     5    13    14   ar
     6    14    15   ar
     7    15    16   ar
     8    16    17   ar
     9    17    19    1
    10    19    20    1
    11    19    21    1
    12    19    22    1
    13    17    18   ar
    14     3     4   ar
    15     4     5   ar
    16     5     6   ar
    17     6     7   ar
    18     7    23    1
    19    23    24    1
    20    24    25   ar
    21    25    26   ar
    22    26    27   ar
    23    27    28   ar
    24    28    30    1
    25    30    31   ar
    26    31    32   ar
    27    32    33   ar
    28    33    36    1
    29    36    37    1
    30    36    38    1
    31    36    39    1
    32    33    34   ar
    33    28    29   ar
    34     7     8   ar
    35     8     9   ar
    36     9    10   ar
    37    10     2   ar
    38    18    13   ar
    39    10     5   ar
    40    29    24   ar
    41    34    30   ar
    42    11    12    1
    43    34    35    1
@<TRIPOS>MOLECULE
*****
 39 43 0 0 0
SMALL
GASTEIGER

@<TRIPOS>ATOM
      1 C          62.4643   86.0038   18.2355 C.3     1  UNL1        0.1332
      2 N          63.0750   86.3668   16.9144 N.ar    1  UNL1       -0.2975
      3 C          63.4735   85.4061   15.8335 C.ar    1  UNL1        0.2017
      4 N          64.0392   86.1998   14.6934 N.ar    1  UNL1       -0.2134
      5 C          63.9905   87.6511   15.0696 C.ar    1  UNL1        0.1030
      6 C          64.4117   88.8919   14.3397 C.ar    1  UNL1        0.0581
      7 C          64.2370   90.2359   14.9823 C.ar    1  UNL1        0.1469
      8 C          63.6411   90.3391   16.3550 C.ar    1  UNL1        0.0391
      9 C          63.2199   89.0983   17.0850 C.ar    1  UNL1        0.0219
     10 C          63.3946   87.7543   16.4423 C.ar    1  UNL1        0.0801
     11 N          63.3311   83.9137   15.8839 N.pl3   1  UNL1       -0.2839
     12 H          63.4409   83.4374   16.7385 H       1  UNL1        0.1550
     13 C          63.0215   83.1472   14.6323 C.ar    1  UNL1        0.0501
     14 C          62.3975   81.7860   14.7215 C.ar    1  UNL1        0.0147
     15 C          62.0879   81.0194   13.4699 C.ar    1  UNL1        0.0009
     16 C          62.4024   81.6140   12.1291 C.ar    1  UNL1       -0.0042
     17 C          63.0264   82.9750   12.0399 C.ar    1  UNL1       -0.0216
     18 C          63.3360   83.7417   13.2916 C.ar    1  UNL1        0.0104
     19 C          63.3408   83.5696   10.6992 C.3     1  UNL1        0.0190
     20 C          62.4998   84.7660   11.0325 C.3     1  UNL1        0.0044
     21 C          64.1819   82.3731   10.3659 C.3     1  UNL1        0.0044
     22 C          63.6552   84.1641    9.3584 C.3     1  UNL1        0.0044
     23 O          64.6583   91.4768   14.2524 O.3     1  UNL1       -0.4533
     24 C          64.3490   91.6296   12.7926 C.ar    1  UNL1        0.1485
     25 C          65.1005   92.6321   11.9677 C.ar    1  UNL1        0.0582
     26 C          64.7912   92.7849   10.5079 C.ar    1  UNL1        0.1021
     27 N          63.7305   91.9353    9.8730 N.ar    1  UNL1       -0.2406
     28 C          62.9791   90.9329   10.6979 C.ar    1  UNL1        0.1181
     29 C          63.2883   90.7801   12.1577 C.ar    1  UNL1        0.0597
     30 C          61.9183   90.0832   10.0630 C.ar    1  UNL1        0.1585
     31 N          60.5108   90.5070    9.7645 N.ar    1  UNL1       -0.2240
     32 C          59.8015   89.3463    9.1322 C.ar    1  UNL1        0.1214
     33 C          60.7707   88.2052    9.0399 C.ar    1  UNL1        0.1493
     34 N          62.0791   88.6607    9.6152 N.ar    1  UNL1       -0.3329
     35 H          62.8993   88.1208    9.6864 H       1  UNL1        0.1674
     36 C          60.4823   86.8471    8.4721 C.3     1  UNL1        0.4344
     37 F          60.1939   85.4891    7.9042 F       1  UNL1       -0.1644
     38 F          59.0106   87.1023    8.6092 F       1  UNL1       -0.1644
     39 F          61.9541   86.5919    8.3349 F       1  UNL1       -0.1644
@<TRIPOS>BOND
     1     1     2    1
     2     2     3   ar
     3     3    11    1
     4    11    13    1
     5    13    14   ar
     6    14    15   ar
     7    15    16   ar
     8    16    17   ar
     9    17    19    1
    10    19    20    1
    11    19    21    1
    12    19    22    1
    13    17    18   ar
    14     3     4   ar
    15     4     5   ar
    16     5     6   ar
    17     6     7   ar
    18     7    23    1
    19    23    24    1
    20    24    25   ar
    21    25    26   ar
    22    26    27   ar
    23    27    28   ar
    24    28    30    1
    25    30    31   ar
    26    31    32   ar
    27    32    33   ar
    28    33    36    1
    29    36    37    1
    30    36    38    1
    31    36    39    1
    32    33    34   ar
    33    28    29   ar
    34     7     8   ar
    35     8     9   ar
    36     9    10   ar
    37    10     2   ar
    38    18    13   ar
    39    10     5   ar
    40    29    24   ar
    41    34    30   ar
    42    11    12    1
    43    34    35    1
@<TRIPOS>MOLECULE
*****
 39 43 0 0 0
SMALL
GASTEIGER

@<TRIPOS>ATOM
      1 C          63.2678   87.7098   12.4322 C.3     1  UNL1        0.1332
      2 N          62.4687   88.7355   11.6843 N.ar    1  UNL1       -0.2975
      3 C          62.3446   90.1874   12.0399 C.ar    1  UNL1        0.2017
      4 N          61.4526   90.8386   11.0248 N.ar    1  UNL1       -0.2134
      5 C          61.0254   89.7891   10.0419 C.ar    1  UNL1        0.1030
      6 C          60.1458   89.8490    8.8284 C.ar    1  UNL1        0.0581
      7 C          59.8941   88.6092    8.0226 C.ar    1  UNL1        0.1469
      8 C          60.5221   87.3094    8.4302 C.ar    1  UNL1        0.0391
      9 C          61.4018   87.2494    9.6436 C.ar    1  UNL1        0.0219
     10 C          61.6534   88.4893   10.4495 C.ar    1  UNL1        0.0801
     11 N          62.9977   90.8686   13.2058 N.pl3   1  UNL1       -0.2839
     12 H          62.4897   91.0197   14.0354 H       1  UNL1        0.1550
     13 C          64.4249   91.3197   13.1076 C.ar    1  UNL1        0.0501
     14 C          65.3795   91.0378   14.2299 C.ar    1  UNL1        0.0147
     15 C          66.8066   91.4889   14.1318 C.ar    1  UNL1        0.0009
     16 C          67.2794   92.2217   12.9114 C.ar    1  UNL1       -0.0042
     17 C          66.3249   92.5036   11.7891 C.ar    1  UNL1       -0.0216
     18 C          64.8977   92.0525   11.8872 C.ar    1  UNL1        0.0104
     19 C          66.7977   93.2364   10.5687 C.3     1  UNL1        0.0190
     20 C          67.8804   92.2164   10.3755 C.3     1  UNL1        0.0044
     21 C          65.7150   94.2564   10.7618 C.3     1  UNL1        0.0044
     22 C          67.2704   93.9693    9.3482 C.3     1  UNL1        0.0044
     23 O          59.0144   88.6691    6.8090 O.3     1  UNL1       -0.4533
     24 C          59.0164   89.8924    5.9409 C.ar    1  UNL1        0.1485
     25 C          57.7819   90.7377    5.8333 C.ar    1  UNL1        0.0582
     26 C          57.7839   91.9610    4.9652 C.ar    1  UNL1        0.1021
     27 N          59.0204   92.3390    4.2048 N.ar    1  UNL1       -0.2406
     28 C          60.2549   91.4937    4.3125 C.ar    1  UNL1        0.1181
     29 C          60.2529   90.2704    5.1805 C.ar    1  UNL1        0.0597
     30 C          61.4914   91.8718    3.5520 C.ar    1  UNL1        0.1585
     31 N          62.8387   91.2255    3.6824 N.ar    1  UNL1       -0.2240
     32 C          63.7777   91.9167    2.7387 C.ar    1  UNL1        0.1214
     33 C          63.0106   92.9902    2.0250 C.ar    1  UNL1        0.1493
     34 N          61.5975   92.9624    2.5277 N.ar    1  UNL1       -0.3329
     35 H          60.8679   93.5559    2.2366 H       1  UNL1        0.1674
     36 C          63.5601   93.9270    0.9904 C.3     1  UNL1        0.4344
     37 F          64.1095   94.8638   -0.0442 F       1  UNL1       -0.1644
     38 F          64.7918   93.0787    0.8764 F       1  UNL1       -0.1644
     39 F          62.3283   94.7754    1.1044 F       1  UNL1       -0.1644
@<TRIPOS>BOND
     1     1     2    1
     2     2     3   ar
     3     3    11    1
     4    11    13    1
     5    13    14   ar
     6    14    15   ar
     7    15    16   ar
     8    16    17   ar
     9    17    19    1
    10    19    20    1
    11    19    21    1
    12    19    22    1
    13    17    18   ar
    14     3     4   ar
    15     4     5   ar
    16     5     6   ar
    17     6     7   ar
    18     7    23    1
    19    23    24    1
    20    24    25   ar
    21    25    26   ar
    22    26    27   ar
    23    27    28   ar
    24    28    30    1
    25    30    31   ar
    26    31    32   ar
    27    32    33   ar
    28    33    36    1
    29    36    37    1
    30    36    38    1
    31    36    39    1
    32    33    34   ar
    33    28    29   ar
    34     7     8   ar
    35     8     9   ar
    36     9    10   ar
    37    10     2   ar
    38    18    13   ar
    39    10     5   ar
    40    29    24   ar
    41    34    30   ar
    42    11    12    1
    43    34    35    1
@<TRIPOS>MOLECULE
*****
 39 43 0 0 0
SMALL
GASTEIGER

@<TRIPOS>ATOM
      1 C          63.1575   90.6484   17.0674 C.3     1  UNL1        0.1332
      2 N          63.6832   89.6332   16.0963 N.ar    1  UNL1       -0.2975
      3 C          64.4900   89.9253   14.8659 C.ar    1  UNL1        0.2017
      4 N          64.7999   88.6204   14.1943 N.ar    1  UNL1       -0.2134
      5 C          64.1847   87.5218   15.0096 C.ar    1  UNL1        0.1030
      6 C          64.1638   86.0324   14.8335 C.ar    1  UNL1        0.0581
      7 C          63.4527   85.1689   15.8329 C.ar    1  UNL1        0.1469
      8 C          62.7626   85.7949   17.0084 C.ar    1  UNL1        0.0391
      9 C          62.7835   87.2844   17.1845 C.ar    1  UNL1        0.0219
     10 C          63.4946   88.1478   16.1851 C.ar    1  UNL1        0.0801
     11 N          64.9126   91.2838   14.3906 N.pl3   1  UNL1       -0.2839
     12 H          65.2757   91.9382   15.0303 H       1  UNL1        0.1550
     13 C          64.7821   91.6452   12.9407 C.ar    1  UNL1        0.0501
     14 C          63.6580   91.0788   12.1248 C.ar    1  UNL1        0.0147
     15 C          63.5274   91.4402   10.6749 C.ar    1  UNL1        0.0009
     16 C          64.5209   92.3681   10.0408 C.ar    1  UNL1       -0.0042
     17 C          65.6450   92.9345   10.8567 C.ar    1  UNL1       -0.0216
     18 C          65.7756   92.5731   12.3066 C.ar    1  UNL1        0.0104
     19 C          66.6385   93.8624   10.2226 C.3     1  UNL1        0.0190
     20 C          67.5466   92.7010    9.9459 C.3     1  UNL1        0.0044
     21 C          65.7304   95.0238   10.4992 C.3     1  UNL1        0.0044
     22 C          67.6320   94.7902    9.5885 C.3     1  UNL1        0.0044
     23 O          63.4318   83.6794   15.6568 O.3     1  UNL1       -0.4533
     24 C          63.2399   83.0882   14.2916 C.ar    1  UNL1        0.1485
     25 C          63.2451   81.5990   14.1117 C.ar    1  UNL1        0.0582
     26 C          63.0532   81.0078   12.7466 C.ar    1  UNL1        0.1021
     27 N          62.8561   81.9058   11.5613 N.ar    1  UNL1       -0.2406
     28 C          62.8509   83.3950   11.7412 C.ar    1  UNL1        0.1181
     29 C          63.0428   83.9861   13.1064 C.ar    1  UNL1        0.0597
     30 C          62.6538   84.2930   10.5560 C.ar    1  UNL1        0.1585
     31 N          63.4428   84.2559    9.2808 N.ar    1  UNL1       -0.2240
     32 C          62.9097   85.3258    8.3746 C.ar    1  UNL1        0.1214
     33 C          61.7912   86.0241    9.0897 C.ar    1  UNL1        0.1493
     34 N          61.6330   85.3857   10.4379 N.ar    1  UNL1       -0.3329
     35 H          60.9748   85.6394   11.1247 H       1  UNL1        0.1674
     36 C          60.9743   87.1610    8.5512 C.3     1  UNL1        0.4344
     37 F          60.1573   88.2979    8.0127 F       1  UNL1       -0.1644
     38 F          61.8218   88.1329    9.3174 F       1  UNL1       -0.1644
     39 F          60.1267   86.1891    7.7850 F       1  UNL1       -0.1644
@<TRIPOS>BOND
     1     1     2    1
     2     2     3   ar
     3     3    11    1
     4    11    13    1
     5    13    14   ar
     6    14    15   ar
     7    15    16   ar
     8    16    17   ar
     9    17    19    1
    10    19    20    1
    11    19    21    1
    12    19    22    1
    13    17    18   ar
    14     3     4   ar
    15     4     5   ar
    16     5     6   ar
    17     6     7   ar
    18     7    23    1
    19    23    24    1
    20    24    25   ar
    21    25    26   ar
    22    26    27   ar
    23    27    28   ar
    24    28    30    1
    25    30    31   ar
    26    31    32   ar
    27    32    33   ar
    28    33    36    1
    29    36    37    1
    30    36    38    1
    31    36    39    1
    32    33    34   ar
    33    28    29   ar
    34     7     8   ar
    35     8     9   ar
    36     9    10   ar
    37    10     2   ar
    38    18    13   ar
    39    10     5   ar
    40    29    24   ar
    41    34    30   ar
    42    11    12    1
    43    34    35    1
@<TRIPOS>MOLECULE
*****
 39 43 0 0 0
SMALL
GASTEIGER

@<TRIPOS>ATOM
      1 C          63.0114   84.6656   17.1501 C.3     1  UNL1        0.1332
      2 N          63.6443   85.5656   16.1305 N.ar    1  UNL1       -0.2975
      3 C          64.4721   85.1262   14.9593 C.ar    1  UNL1        0.2017
      4 N          64.8999   86.3520   14.2082 N.ar    1  UNL1       -0.2134
      5 C          64.3366   87.5491   14.9151 C.ar    1  UNL1        0.1030
      6 C          64.4300   89.0188   14.6305 C.ar    1  UNL1        0.0581
      7 C          63.7474   90.0025   15.5340 C.ar    1  UNL1        0.1469
      8 C          62.9714   89.5165   16.7221 C.ar    1  UNL1        0.0391
      9 C          62.8780   88.0467   17.0067 C.ar    1  UNL1        0.0219
     10 C          63.5606   87.0630   16.1032 C.ar    1  UNL1        0.0801
     11 N          64.8123   83.7096   14.6020 N.pl3   1  UNL1       -0.2839
     12 H          65.7380   83.3875   14.6940 H       1  UNL1        0.1550
     13 C          63.7420   82.7839   14.1045 C.ar    1  UNL1        0.0501
     14 C          62.5127   82.5459   14.9304 C.ar    1  UNL1        0.0147
     15 C          61.4425   81.6202   14.4329 C.ar    1  UNL1        0.0009
     16 C          61.6015   80.9325   13.1094 C.ar    1  UNL1       -0.0042
     17 C          62.8307   81.1704   12.2834 C.ar    1  UNL1       -0.0216
     18 C          63.9010   82.0962   12.7809 C.ar    1  UNL1        0.0104
     19 C          62.9897   80.4827   10.9599 C.3     1  UNL1        0.0190
     20 C          63.4810   81.7635   10.3533 C.3     1  UNL1        0.0044
     21 C          62.4984   79.2018   11.5665 C.3     1  UNL1        0.0044
     22 C          63.1487   79.7949    9.6364 C.3     1  UNL1        0.0044
     23 O          63.8408   91.4724   15.2494 O.3     1  UNL1       -0.4533
     24 C          65.1635   92.0854   14.8965 C.ar    1  UNL1        0.1485
     25 C          66.1736   92.3597   15.9710 C.ar    1  UNL1        0.0582
     26 C          67.4964   92.9727   15.6181 C.ar    1  UNL1        0.1021
     27 N          67.8090   93.3115   14.1907 N.ar    1  UNL1       -0.2406
     28 C          66.7990   93.0372   13.1162 C.ar    1  UNL1        0.1181
     29 C          65.4762   92.4242   13.4691 C.ar    1  UNL1        0.0597
     30 C          67.1116   93.3759   11.6887 C.ar    1  UNL1        0.1585
     31 N          67.6785   92.4387   10.6640 N.ar    1  UNL1       -0.2240
     32 C          67.8295   93.1949    9.3774 C.ar    1  UNL1        0.1214
     33 C          67.3560   94.5996    9.6070 C.ar    1  UNL1        0.1493
     34 N          66.9123   94.7115   11.0356 N.ar    1  UNL1       -0.3329
     35 H          66.5533   95.5195   11.4685 H       1  UNL1        0.1674
     36 C          67.3306   95.6993    8.5872 C.3     1  UNL1        0.4344
     37 F          67.3052   96.7990    7.5674 F       1  UNL1       -0.1644
     38 F          67.1415   96.7088    9.6805 F       1  UNL1       -0.1644
     39 F          67.5197   94.6898    7.4940 F       1  UNL1       -0.1644
@<TRIPOS>BOND
     1     1     2    1
     2     2     3   ar
     3     3    11    1
     4    11    13    1
     5    13    14   ar
     6    14    15   ar
     7    15    16   ar
     8    16    17   ar
     9    17    19    1
    10    19    20    1
    11    19    21    1
    12    19    22    1
    13    17    18   ar
    14     3     4   ar
    15     4     5   ar
    16     5     6   ar
    17     6     7   ar
    18     7    23    1
    19    23    24    1
    20    24    25   ar
    21    25    26   ar
    22    26    27   ar
    23    27    28   ar
    24    28    30    1
    25    30    31   ar
    26    31    32   ar
    27    32    33   ar
    28    33    36    1
    29    36    37    1
    30    36    38    1
    31    36    39    1
    32    33    34   ar
    33    28    29   ar
    34     7     8   ar
    35     8     9   ar
    36     9    10   ar
    37    10     2   ar
    38    18    13   ar
    39    10     5   ar
    40    29    24   ar
    41    34    30   ar
    42    11    12    1
    43    34    35    1
@<TRIPOS>MOLECULE
*****
 39 43 0 0 0
SMALL
GASTEIGER

@<TRIPOS>ATOM
      1 C          63.0902   89.5194   12.6803 C.3     1  UNL1        0.1332
      2 N          62.4891   88.5006   11.7579 N.ar    1  UNL1       -0.2975
      3 C          62.6523   87.0131   11.8607 C.ar    1  UNL1        0.2017
      4 N          61.8834   86.3837   10.7370 N.ar    1  UNL1       -0.2134
      5 C          61.2450   87.4823    9.9397 C.ar    1  UNL1        0.1030
      6 C          60.3712   87.4603    8.7207 C.ar    1  UNL1        0.0581
      7 C          59.8718   88.7466    8.1327 C.ar    1  UNL1        0.1469
      8 C          60.2462   90.0550    8.7636 C.ar    1  UNL1        0.0391
      9 C          61.1200   90.0770    9.9826 C.ar    1  UNL1        0.0219
     10 C          61.6194   88.7906   10.5707 C.ar    1  UNL1        0.0801
     11 N          63.4451   86.2831   12.9040 N.pl3   1  UNL1       -0.2839
     12 H          64.1662   86.7467   13.3881 H       1  UNL1        0.1550
     13 C          63.1394   84.8468   13.2097 C.ar    1  UNL1        0.0501
     14 C          62.7173   84.4477   14.5927 C.ar    1  UNL1        0.0147
     15 C          62.4115   83.0114   14.8984 C.ar    1  UNL1        0.0009
     16 C          62.5278   81.9741   13.8211 C.ar    1  UNL1       -0.0042
     17 C          62.9499   82.3731   12.4382 C.ar    1  UNL1       -0.0216
     18 C          63.2557   83.8095   12.1324 C.ar    1  UNL1        0.0104
     19 C          63.0662   81.3358   11.3609 C.3     1  UNL1        0.0190
     20 C          63.5812   82.3780   10.4130 C.3     1  UNL1        0.0044
     21 C          62.5512   80.2936   12.3088 C.3     1  UNL1        0.0044
     22 C          63.1825   80.2985   10.2836 C.3     1  UNL1        0.0044
     23 O          58.9979   88.7247    6.9137 O.3     1  UNL1       -0.4533
     24 C          58.9765   89.9024    5.9850 C.ar    1  UNL1        0.1485
     25 C          57.7132   90.6903    5.8019 C.ar    1  UNL1        0.0582
     26 C          57.6918   91.8680    4.8731 C.ar    1  UNL1        0.1021
     27 N          58.9337   92.2579    4.1275 N.ar    1  UNL1       -0.2406
     28 C          60.1969   91.4700    4.3107 C.ar    1  UNL1        0.1181
     29 C          60.2183   90.2923    5.2394 C.ar    1  UNL1        0.0597
     30 C          61.4388   91.8599    3.5651 C.ar    1  UNL1        0.1585
     31 N          62.7900   91.2250    3.7100 N.ar    1  UNL1       -0.2240
     32 C          63.7337   91.9258    2.7781 C.ar    1  UNL1        0.1214
     33 C          62.9657   92.9938    2.0573 C.ar    1  UNL1        0.1493
     34 N          61.5472   92.9530    2.5437 N.ar    1  UNL1       -0.3329
     35 H          60.8159   93.5406    2.2450 H       1  UNL1        0.1674
     36 C          63.5189   93.9369    1.0304 C.3     1  UNL1        0.4344
     37 F          64.0721   94.8800    0.0035 F       1  UNL1       -0.1644
     38 F          62.3511   94.8539    1.2435 F       1  UNL1       -0.1644
     39 F          64.6866   93.0199    0.8173 F       1  UNL1       -0.1644
@<TRIPOS>BOND
     1     1     2    1
     2     2     3   ar
     3     3    11    1
     4    11    13    1
     5    13    14   ar
     6    14    15   ar
     7    15    16   ar
     8    16    17   ar
     9    17    19    1
    10    19    20    1
    11    19    21    1
    12    19    22    1
    13    17    18   ar
    14     3     4   ar
    15     4     5   ar
    16     5     6   ar
    17     6     7   ar
    18     7    23    1
    19    23    24    1
    20    24    25   ar
    21    25    26   ar
    22    26    27   ar
    23    27    28   ar
    24    28    30    1
    25    30    31   ar
    26    31    32   ar
    27    32    33   ar
    28    33    36    1
    29    36    37    1
    30    36    38    1
    31    36    39    1
    32    33    34   ar
    33    28    29   ar
    34     7     8   ar
    35     8     9   ar
    36     9    10   ar
    37    10     2   ar
    38    18    13   ar
    39    10     5   ar
    40    29    24   ar
    41    34    30   ar
    42    11    12    1
    43    34    35    1
@<TRIPOS>MOLECULE
*****
 39 43 0 0 0
SMALL
GASTEIGER

@<TRIPOS>ATOM
      1 C          61.3323   88.6053    9.7096 C.3     1  UNL1        0.1332
      2 N          62.1138   88.1517   10.9069 N.ar    1  UNL1       -0.2975
      3 C          62.3751   86.7284   11.3017 C.ar    1  UNL1        0.2017
      4 N          63.1939   86.7389   12.5584 N.ar    1  UNL1       -0.2134
      5 C          63.4386   88.1687   12.9404 C.ar    1  UNL1        0.1030
      6 C          64.1830   88.7883   14.0858 C.ar    1  UNL1        0.0581
      7 C          64.2598   90.2811   14.2104 C.ar    1  UNL1        0.1469
      8 C          63.5922   91.1543   13.1897 C.ar    1  UNL1        0.0391
      9 C          62.8478   90.5347   12.0443 C.ar    1  UNL1        0.0219
     10 C          62.7710   89.0419   11.9197 C.ar    1  UNL1        0.0801
     11 N          61.9010   85.5088   10.5684 N.pl3   1  UNL1       -0.2839
     12 H          61.1307   85.5696    9.9584 H       1  UNL1        0.1550
     13 C          62.6005   84.1965   10.7646 C.ar    1  UNL1        0.0501
     14 C          63.7455   83.8163    9.8732 C.ar    1  UNL1        0.0147
     15 C          64.4450   82.5040   10.0694 C.ar    1  UNL1        0.0009
     16 C          63.9996   81.5718   11.1569 C.ar    1  UNL1       -0.0042
     17 C          62.8546   81.9520   12.0483 C.ar    1  UNL1       -0.0216
     18 C          62.1551   83.2644   11.8521 C.ar    1  UNL1        0.0104
     19 C          62.4092   81.0199   13.1358 C.3     1  UNL1        0.0190
     20 C          62.1816   82.1904   14.0458 C.3     1  UNL1        0.0044
     21 C          62.6368   79.8494   12.2258 C.3     1  UNL1        0.0044
     22 C          61.9638   80.0878   14.2234 C.3     1  UNL1        0.0044
     23 O          65.0042   90.9008   15.3558 O.3     1  UNL1       -0.4533
     24 C          65.9302   92.0553   15.1116 C.ar    1  UNL1        0.1485
     25 C          67.0020   92.3812   16.1092 C.ar    1  UNL1        0.0582
     26 C          67.9279   93.5358   15.8649 C.ar    1  UNL1        0.1021
     27 N          67.7821   94.3644   14.6231 N.ar    1  UNL1       -0.2406
     28 C          66.7104   94.0385   13.6255 C.ar    1  UNL1        0.1181
     29 C          65.7844   92.8840   13.8698 C.ar    1  UNL1        0.0597
     30 C          66.5645   94.8672   12.3837 C.ar    1  UNL1        0.1585
     31 N          66.1748   96.3146   12.3303 N.ar    1  UNL1       -0.2240
     32 C          66.1522   96.7358   10.8908 C.ar    1  UNL1        0.1214
     33 C          66.5280   95.5486   10.0545 C.ar    1  UNL1        0.1493
     34 N          66.7829   94.3936   10.9772 N.ar    1  UNL1       -0.3329
     35 H          67.0470   93.4845   10.7071 H       1  UNL1        0.1674
     36 C          66.6310   95.5211    8.5583 C.3     1  UNL1        0.4344
     37 F          66.7339   95.4937    7.0621 F       1  UNL1       -0.1644
     38 F          67.6003   94.3798    8.6459 F       1  UNL1       -0.1644
     39 F          65.6617   96.6625    8.4707 F       1  UNL1       -0.1644
@<TRIPOS>BOND
     1     1     2    1
     2     2     3   ar
     3     3    11    1
     4    11    13    1
     5    13    14   ar
     6    14    15   ar
     7    15    16   ar
     8    16    17   ar
     9    17    19    1
    10    19    20    1
    11    19    21    1
    12    19    22    1
    13    17    18   ar
    14     3     4   ar
    15     4     5   ar
    16     5     6   ar
    17     6     7   ar
    18     7    23    1
    19    23    24    1
    20    24    25   ar
    21    25    26   ar
    22    26    27   ar
    23    27    28   ar
    24    28    30    1
    25    30    31   ar
    26    31    32   ar
    27    32    33   ar
    28    33    36    1
    29    36    37    1
    30    36    38    1
    31    36    39    1
    32    33    34   ar
    33    28    29   ar
    34     7     8   ar
    35     8     9   ar
    36     9    10   ar
    37    10     2   ar
    38    18    13   ar
    39    10     5   ar
    40    29    24   ar
    41    34    30   ar
    42    11    12    1
    43    34    35    1
