@<TRIPOS>MOLECULE
*****
 33 38 0 0 0
SMALL
GASTEIGER

@<TRIPOS>ATOM
      1 N          63.2435   90.6633   11.1832 N.ar    1  UNL1       -0.2104
      2 N          63.9624   91.8858   10.6945 N.ar    1  UNL1       -0.0596
      3 N          64.8757   92.3547   11.7881 N.ar    1  UNL1       -0.1276
      4 C          64.7212   91.4220   12.9527 C.ar    1  UNL1        0.1326
      5 C          65.3688   91.3895   14.3054 C.ar    1  UNL1        0.0786
      6 CL         66.3776   92.4348   14.6792 Cl      1  UNL1       -0.0806
      7 C          65.0076   90.3118   15.2841 C.ar    1  UNL1        0.0146
      8 C          63.9988   89.2664   14.9102 C.ar    1  UNL1        0.0198
      9 C          63.3513   89.2989   13.5576 C.ar    1  UNL1        0.0223
     10 C          63.7125   90.3767   12.5789 C.ar    1  UNL1        0.1046
     11 O          59.9804   84.8933    6.9782 O.2     1  UNL1       -0.2484
     12 C          60.3452   86.1203    7.7600 C.2     1  UNL1        0.3478
     13 N          59.4358   87.2731    8.0667 N.am    1  UNL1       -0.1594
     14 C          60.2120   88.2753    8.8687 C.ar    1  UNL1        0.0904
     15 C          59.8333   89.6046    9.4512 C.ar    1  UNL1        0.0195
     16 C          60.8438   90.4006   10.2227 C.ar    1  UNL1        0.0206
     17 C          62.2330   89.8673   10.4117 C.ar    1  UNL1        0.0858
     18 C          62.6116   88.5380    9.8291 C.ar    1  UNL1        0.0372
     19 C          61.6011   87.7420    9.0576 C.ar    1  UNL1        0.0918
     20 N          61.6835   86.4101    8.3724 N.am    1  UNL1       -0.1593
     21 C          63.6377   88.1887   15.8890 C.ar    1  UNL1        0.0799
     22 C          62.9254   88.3856   17.1944 C.ar    1  UNL1        0.0412
     23 C          62.7730   87.0434   17.8464 C.ar    1  UNL1        0.1217
     24 N          63.3912   86.0169   16.9441 N.ar    1  UNL1       -0.1673
     25 N          63.9256   86.7247   15.7344 N.ar    1  UNL1       -0.2448
     26 C          64.6251   86.0815   14.5737 C.3     1  UNL1        0.1727
     27 C          64.0706   84.8277   13.9651 C.ar    1  UNL1        0.0837
     28 C          63.2875   84.8969   12.6876 C.ar    1  UNL1        0.0176
     29 C          62.7330   83.6432   12.0789 C.ar    1  UNL1        0.0142
     30 C          62.9615   82.3201   12.7478 C.ar    1  UNL1        0.0768
     31 CL         62.4070   81.0663   12.1391 Cl      1  UNL1       -0.0806
     32 C          63.7446   82.2508   14.0253 C.ar    1  UNL1        0.1098
     33 N          64.2991   83.5047   14.6339 N.ar    1  UNL1       -0.2453
@<TRIPOS>BOND
     1    11    12    2
     2    12    13    1
     3    13    14    2
     4    14    15   ar
     5    15    16   ar
     6    16    17   ar
     7    17     1    1
     8     1     2   ar
     9     2     3   ar
    10     3     4   ar
    11     4     5   ar
    12     5     6    1
    13     5     7   ar
    14     7     8   ar
    15     8    21    1
    16    21    22   ar
    17    22    23   ar
    18    23    24   ar
    19    24    25   ar
    20    25    26    1
    21    26    27    1
    22    27    28   ar
    23    28    29   ar
    24    29    30   ar
    25    30    31    1
    26    30    32   ar
    27    32    33   ar
    28     8     9   ar
    29     9    10   ar
    30    17    18   ar
    31    18    19   ar
    32    19    20    2
    33    20    12    1
    34    19    14   ar
    35    10     1   ar
    36    10     4   ar
    37    25    21   ar
    38    33    27   ar
@<TRIPOS>MOLECULE
*****
 33 38 0 0 0
SMALL
GASTEIGER

@<TRIPOS>ATOM
      1 N          63.9246   90.4363   14.8443 N.ar    1  UNL1       -0.2104
      2 N          63.5565   91.1703   16.0996 N.ar    1  UNL1       -0.0596
      3 N          63.1938   90.1540   17.1415 N.ar    1  UNL1       -0.1276
      4 C          63.3378   88.7918   16.5301 C.ar    1  UNL1        0.1326
      5 C          63.1159   87.4151   17.0827 C.ar    1  UNL1        0.0786
      6 CL         62.6643   87.2406   18.5025 Cl      1  UNL1       -0.0806
      7 C          63.3457   86.2129   16.2157 C.ar    1  UNL1        0.0146
      8 C          63.7974   86.3873   14.7960 C.ar    1  UNL1        0.0198
      9 C          64.0192   87.7640   14.2433 C.ar    1  UNL1        0.0223
     10 C          63.7894   88.9663   15.1104 C.ar    1  UNL1        0.1046
     11 O          68.1123   94.4938    9.5886 O.2     1  UNL1       -0.2484
     12 C          67.1338   93.6698   10.3720 C.2     1  UNL1        0.3478
     13 N          65.8803   93.0440    9.8363 N.am    1  UNL1       -0.1594
     14 C          65.2088   92.3144   10.9619 C.ar    1  UNL1        0.0904
     15 C          63.9422   91.5134   11.0247 C.ar    1  UNL1        0.0195
     16 C          63.5141   90.8874   12.3188 C.ar    1  UNL1        0.0206
     17 C          64.3527   91.0623   13.5502 C.ar    1  UNL1        0.0858
     18 C          65.6193   91.8634   13.4874 C.ar    1  UNL1        0.0372
     19 C          66.0474   92.4894   12.1933 C.ar    1  UNL1        0.0918
     20 N          67.2371   93.3271   11.8286 N.am    1  UNL1       -0.1593
     21 C          64.0271   85.1850   13.9290 C.ar    1  UNL1        0.0799
     22 C          64.9122   84.0187   14.2553 C.ar    1  UNL1        0.0412
     23 C          64.8442   83.0508   13.1114 C.ar    1  UNL1        0.1217
     24 N          63.9171   83.6189   12.0781 N.ar    1  UNL1       -0.1673
     25 N          63.4121   84.9379   12.5833 N.ar    1  UNL1       -0.2448
     26 C          62.4594   85.8497   11.8685 C.3     1  UNL1        0.1727
     27 C          62.1944   85.6589   10.4045 C.ar    1  UNL1        0.0837
     28 C          63.1910   84.9328    9.5503 C.ar    1  UNL1        0.0176
     29 C          62.9260   84.7420    8.0863 C.ar    1  UNL1        0.0142
     30 C          61.6644   85.2773    7.4764 C.ar    1  UNL1        0.0768
     31 CL         61.3994   85.0866    6.0124 Cl      1  UNL1       -0.0806
     32 C          60.6678   86.0034    8.3306 C.ar    1  UNL1        0.1098
     33 N          60.9329   86.1942    9.7947 N.ar    1  UNL1       -0.2453
@<TRIPOS>BOND
     1    11    12    2
     2    12    13    1
     3    13    14    2
     4    14    15   ar
     5    15    16   ar
     6    16    17   ar
     7    17     1    1
     8     1     2   ar
     9     2     3   ar
    10     3     4   ar
    11     4     5   ar
    12     5     6    1
    13     5     7   ar
    14     7     8   ar
    15     8    21    1
    16    21    22   ar
    17    22    23   ar
    18    23    24   ar
    19    24    25   ar
    20    25    26    1
    21    26    27    1
    22    27    28   ar
    23    28    29   ar
    24    29    30   ar
    25    30    31    1
    26    30    32   ar
    27    32    33   ar
    28     8     9   ar
    29     9    10   ar
    30    17    18   ar
    31    18    19   ar
    32    19    20    2
    33    20    12    1
    34    19    14   ar
    35    10     1   ar
    36    10     4   ar
    37    25    21   ar
    38    33    27   ar
@<TRIPOS>MOLECULE
*****
 33 38 0 0 0
SMALL
GASTEIGER

@<TRIPOS>ATOM
      1 N          62.7870   86.9919   11.6145 N.ar    1  UNL1       -0.2104
      2 N          62.1649   86.9649   10.2498 N.ar    1  UNL1       -0.0596
      3 N          62.1263   88.3714    9.7301 N.ar    1  UNL1       -0.1276
      4 C          62.7245   89.2677   10.7735 C.ar    1  UNL1        0.1326
      5 C          62.9502   90.7501   10.8137 C.ar    1  UNL1        0.0786
      6 CL         62.5418   91.6027    9.6490 Cl      1  UNL1       -0.0806
      7 C          63.5841   91.3799   12.0183 C.ar    1  UNL1        0.0146
      8 C          63.9925   90.5273   13.1830 C.ar    1  UNL1        0.0198
      9 C          63.7669   89.0449   13.1429 C.ar    1  UNL1        0.0223
     10 C          63.1329   88.4151   11.9381 C.ar    1  UNL1        0.1046
     11 O          62.8439   79.6019   14.2617 O.2     1  UNL1       -0.2484
     12 C          62.9652   81.0747   14.0044 C.2     1  UNL1        0.3478
     13 N          63.5868   82.0823   14.9253 N.am    1  UNL1       -0.1594
     14 C          63.4921   83.4288   14.2711 C.ar    1  UNL1        0.0904
     15 C          63.9373   84.7920   14.7109 C.ar    1  UNL1        0.0195
     16 C          63.7023   85.9797   13.8254 C.ar    1  UNL1        0.0206
     17 C          63.0220   85.8041   12.5000 C.ar    1  UNL1        0.0858
     18 C          62.5768   84.4409   12.0602 C.ar    1  UNL1        0.0372
     19 C          62.8119   83.2533   12.9457 C.ar    1  UNL1        0.0918
     20 N          62.4863   81.7984   12.7809 N.am    1  UNL1       -0.1593
     21 C          64.6265   91.1571   14.3877 C.ar    1  UNL1        0.0799
     22 C          63.9865   91.3271   15.7336 C.ar    1  UNL1        0.0412
     23 C          64.9764   92.0027   16.6357 C.ar    1  UNL1        0.1217
     24 N          66.2282   92.2503   15.8473 N.ar    1  UNL1       -0.1673
     25 N          66.0120   91.7278   14.4579 N.ar    1  UNL1       -0.2448
     26 C          67.0067   91.7686   13.3359 C.3     1  UNL1        0.1727
     27 C          66.8742   92.7984   12.2534 C.ar    1  UNL1        0.0837
     28 C          67.2045   92.4417   10.8343 C.ar    1  UNL1        0.0176
     29 C          67.0720   93.4715    9.7518 C.ar    1  UNL1        0.0142
     30 C          66.6094   94.8582   10.0883 C.ar    1  UNL1        0.0768
     31 CL         66.4769   95.8880    9.0058 Cl      1  UNL1       -0.0806
     32 C          66.2791   95.2149   11.5074 C.ar    1  UNL1        0.1098
     33 N          66.4116   94.1850   12.5899 N.ar    1  UNL1       -0.2453
@<TRIPOS>BOND
     1    11    12    2
     2    12    13    1
     3    13    14    2
     4    14    15   ar
     5    15    16   ar
     6    16    17   ar
     7    17     1    1
     8     1     2   ar
     9     2     3   ar
    10     3     4   ar
    11     4     5   ar
    12     5     6    1
    13     5     7   ar
    14     7     8   ar
    15     8    21    1
    16    21    22   ar
    17    22    23   ar
    18    23    24   ar
    19    24    25   ar
    20    25    26    1
    21    26    27    1
    22    27    28   ar
    23    28    29   ar
    24    29    30   ar
    25    30    31    1
    26    30    32   ar
    27    32    33   ar
    28     8     9   ar
    29     9    10   ar
    30    17    18   ar
    31    18    19   ar
    32    19    20    2
    33    20    12    1
    34    19    14   ar
    35    10     1   ar
    36    10     4   ar
    37    25    21   ar
    38    33    27   ar
@<TRIPOS>MOLECULE
*****
 33 38 0 0 0
SMALL
GASTEIGER

@<TRIPOS>ATOM
      1 N          62.1339   89.5289   11.4891 N.ar    1  UNL1       -0.2104
      2 N          61.0358   90.3791   10.9221 N.ar    1  UNL1       -0.0596
      3 N          60.1908   89.5139   10.0349 N.ar    1  UNL1       -0.1276
      4 C          60.7666   88.1289   10.0535 C.ar    1  UNL1        0.1326
      5 C          60.3526   86.8605    9.3682 C.ar    1  UNL1        0.0786
      6 CL         59.1516   86.8512    8.4694 Cl      1  UNL1       -0.0806
      7 C          61.1393   85.6015    9.5816 C.ar    1  UNL1        0.0146
      8 C          62.3403   85.6107   10.4804 C.ar    1  UNL1        0.0198
      9 C          62.7543   86.8791   11.1657 C.ar    1  UNL1        0.0223
     10 C          61.9675   88.1382   10.9523 C.ar    1  UNL1        0.1046
     11 O          67.7332   93.9448   14.7710 O.2     1  UNL1       -0.2484
     12 C          66.7205   92.9179   14.3587 C.2     1  UNL1        0.3478
     13 N          66.4465   91.6194   15.0579 N.am    1  UNL1       -0.1594
     14 C          65.3606   90.9083   14.3061 C.ar    1  UNL1        0.0904
     15 C          64.6822   89.5895   14.5309 C.ar    1  UNL1        0.0195
     16 C          63.6066   89.1298   13.5920 C.ar    1  UNL1        0.0206
     17 C          63.2095   89.9888   12.4281 C.ar    1  UNL1        0.0858
     18 C          63.8880   91.3075   12.2033 C.ar    1  UNL1        0.0372
     19 C          64.9635   91.7672   13.1423 C.ar    1  UNL1        0.0918
     20 N          65.8040   93.0093   13.1748 N.am    1  UNL1       -0.1593
     21 C          63.1270   84.3516   10.6938 C.ar    1  UNL1        0.0799
     22 C          64.1810   83.8043    9.7774 C.ar    1  UNL1        0.0412
     23 C          64.7032   82.5331   10.3784 C.ar    1  UNL1        0.1217
     24 N          63.9721   82.2946   11.6662 N.ar    1  UNL1       -0.1673
     25 N          62.9979   83.4185   11.8612 N.ar    1  UNL1       -0.2448
     26 C          62.0595   83.5808   13.0201 C.3     1  UNL1        0.1727
     27 C          62.4402   84.4569   14.1765 C.ar    1  UNL1        0.0837
     28 C          63.7913   85.1076   14.2115 C.ar    1  UNL1        0.0176
     29 C          64.1720   85.9837   15.3680 C.ar    1  UNL1        0.0142
     30 C          63.2017   86.2092   16.4895 C.ar    1  UNL1        0.0768
     31 CL         63.5825   87.0853   17.6459 Cl      1  UNL1       -0.0806
     32 C          61.8506   85.5585   16.4544 C.ar    1  UNL1        0.1098
     33 N          61.4699   84.6823   15.2979 N.ar    1  UNL1       -0.2453
@<TRIPOS>BOND
     1    11    12    2
     2    12    13    1
     3    13    14    2
     4    14    15   ar
     5    15    16   ar
     6    16    17   ar
     7    17     1    1
     8     1     2   ar
     9     2     3   ar
    10     3     4   ar
    11     4     5   ar
    12     5     6    1
    13     5     7   ar
    14     7     8   ar
    15     8    21    1
    16    21    22   ar
    17    22    23   ar
    18    23    24   ar
    19    24    25   ar
    20    25    26    1
    21    26    27    1
    22    27    28   ar
    23    28    29   ar
    24    29    30   ar
    25    30    31    1
    26    30    32   ar
    27    32    33   ar
    28     8     9   ar
    29     9    10   ar
    30    17    18   ar
    31    18    19   ar
    32    19    20    2
    33    20    12    1
    34    19    14   ar
    35    10     1   ar
    36    10     4   ar
    37    25    21   ar
    38    33    27   ar
@<TRIPOS>MOLECULE
*****
 33 38 0 0 0
SMALL
GASTEIGER

@<TRIPOS>ATOM
      1 N          63.8578   89.9837   14.9065 N.ar    1  UNL1       -0.2104
      2 N          63.5086   90.5964   16.2303 N.ar    1  UNL1       -0.0596
      3 N          63.1812   89.4854   17.1835 N.ar    1  UNL1       -0.1276
      4 C          63.3280   88.1860   16.4486 C.ar    1  UNL1        0.1326
      5 C          63.1349   86.7621   16.8790 C.ar    1  UNL1        0.0786
      6 CL         62.7168   86.4542   18.2863 Cl      1  UNL1       -0.0806
      7 C          63.3600   85.6463   15.9023 C.ar    1  UNL1        0.0146
      8 C          63.7781   85.9542   14.4950 C.ar    1  UNL1        0.0198
      9 C          63.9712   87.3781   14.0646 C.ar    1  UNL1        0.0223
     10 C          63.7461   88.4940   15.0413 C.ar    1  UNL1        0.1046
     11 O          67.6980   94.8040   10.0444 O.2     1  UNL1       -0.2484
     12 C          66.8003   93.8265   10.7434 C.2     1  UNL1        0.3478
     13 N          65.6491   93.0893   10.1262 N.am    1  UNL1       -0.1594
     14 C          65.0336   92.2217   11.1838 C.ar    1  UNL1        0.0904
     15 C          63.8708   91.2747   11.1537 C.ar    1  UNL1        0.0195
     16 C          63.4789   90.5287   12.3946 C.ar    1  UNL1        0.0206
     17 C          64.2497   90.7297   13.6655 C.ar    1  UNL1        0.0858
     18 C          65.4125   91.6768   13.6956 C.ar    1  UNL1        0.0372
     19 C          65.8044   92.4228   12.4547 C.ar    1  UNL1        0.0918
     20 N          66.8964   93.4146   12.1826 N.am    1  UNL1       -0.1593
     21 C          64.0032   84.8382   13.5183 C.ar    1  UNL1        0.0799
     22 C          65.2294   83.9789   13.4284 C.ar    1  UNL1        0.0412
     23 C          65.0255   82.9952   12.3145 C.ar    1  UNL1        0.1217
     24 N          63.6732   83.2466   11.7160 N.ar    1  UNL1       -0.1673
     25 N          63.0414   84.3856   12.4599 N.ar    1  UNL1       -0.2448
     26 C          61.6858   84.9695   12.1924 C.3     1  UNL1        0.1727
     27 C          61.5577   86.2338   11.3955 C.ar    1  UNL1        0.0837
     28 C          62.3747   86.4224   10.1517 C.ar    1  UNL1        0.0176
     29 C          62.2466   87.6866    9.3548 C.ar    1  UNL1        0.0142
     30 C          61.3015   88.7624    9.8017 C.ar    1  UNL1        0.0768
     31 CL         61.1734   90.0267    9.0047 Cl      1  UNL1       -0.0806
     32 C          60.4845   88.5738   11.0455 C.ar    1  UNL1        0.1098
     33 N          60.6127   87.3094   11.8424 N.ar    1  UNL1       -0.2453
@<TRIPOS>BOND
     1    11    12    2
     2    12    13    1
     3    13    14    2
     4    14    15   ar
     5    15    16   ar
     6    16    17   ar
     7    17     1    1
     8     1     2   ar
     9     2     3   ar
    10     3     4   ar
    11     4     5   ar
    12     5     6    1
    13     5     7   ar
    14     7     8   ar
    15     8    21    1
    16    21    22   ar
    17    22    23   ar
    18    23    24   ar
    19    24    25   ar
    20    25    26    1
    21    26    27    1
    22    27    28   ar
    23    28    29   ar
    24    29    30   ar
    25    30    31    1
    26    30    32   ar
    27    32    33   ar
    28     8     9   ar
    29     9    10   ar
    30    17    18   ar
    31    18    19   ar
    32    19    20    2
    33    20    12    1
    34    19    14   ar
    35    10     1   ar
    36    10     4   ar
    37    25    21   ar
    38    33    27   ar
@<TRIPOS>MOLECULE
*****
 33 38 0 0 0
SMALL
GASTEIGER

@<TRIPOS>ATOM
      1 N          62.2226   89.9569   10.6112 N.ar    1  UNL1       -0.2104
      2 N          61.2479   90.5699    9.6498 N.ar    1  UNL1       -0.0596
      3 N          60.4566   89.4611    9.0218 N.ar    1  UNL1       -0.1276
      4 C          60.9422   88.1628    9.5950 C.ar    1  UNL1        0.1326
      5 C          60.5316   86.7412    9.3495 C.ar    1  UNL1        0.0786
      6 CL         59.4401   86.4348    8.3671 Cl      1  UNL1       -0.0806
      7 C          61.2124   85.6260   10.0861 C.ar    1  UNL1        0.0146
      8 C          62.3039   85.9323   11.0685 C.ar    1  UNL1        0.0198
      9 C          62.7145   87.3540   11.3140 C.ar    1  UNL1        0.0223
     10 C          62.0336   88.4692   10.5773 C.ar    1  UNL1        0.1046
     11 O          66.1261   92.5756   16.8983 O.2     1  UNL1       -0.2484
     12 C          65.5611   92.2435   15.5491 C.2     1  UNL1        0.3478
     13 N          66.0387   92.7869   14.2351 N.am    1  UNL1       -0.1594
     14 C          65.1920   92.1890   13.1508 C.ar    1  UNL1        0.0904
     15 C          65.2032   92.3579   11.6604 C.ar    1  UNL1        0.0195
     16 C          64.2134   91.6139   10.8139 C.ar    1  UNL1        0.0206
     17 C          63.2124   90.7009   11.4578 C.ar    1  UNL1        0.0858
     18 C          63.2012   90.5320   12.9482 C.ar    1  UNL1        0.0372
     19 C          64.1911   91.2760   13.7947 C.ar    1  UNL1        0.0918
     20 N          64.4191   91.3097   15.2769 N.am    1  UNL1       -0.1593
     21 C          62.9846   84.8171   11.8051 C.ar    1  UNL1        0.0799
     22 C          62.9064   83.3583   11.4644 C.ar    1  UNL1        0.0412
     23 C          63.7366   82.6044   12.4606 C.ar    1  UNL1        0.1217
     24 N          64.3279   83.5972   13.4170 N.ar    1  UNL1       -0.1673
     25 N          63.8632   84.9647   13.0120 N.ar    1  UNL1       -0.2448
     26 C          64.2152   86.2535   13.6939 C.3     1  UNL1        0.1727
     27 C          63.7761   86.4985   15.1071 C.ar    1  UNL1        0.0837
     28 C          63.4962   85.3395   16.0172 C.ar    1  UNL1        0.0176
     29 C          63.0571   85.5845   17.4304 C.ar    1  UNL1        0.0142
     30 C          62.8980   86.9886   17.9335 C.ar    1  UNL1        0.0768
     31 CL         62.4589   87.2337   19.3467 Cl      1  UNL1       -0.0806
     32 C          63.1779   88.1477   17.0235 C.ar    1  UNL1        0.1098
     33 N          63.6170   87.9026   15.6102 N.ar    1  UNL1       -0.2453
@<TRIPOS>BOND
     1    11    12    2
     2    12    13    1
     3    13    14    2
     4    14    15   ar
     5    15    16   ar
     6    16    17   ar
     7    17     1    1
     8     1     2   ar
     9     2     3   ar
    10     3     4   ar
    11     4     5   ar
    12     5     6    1
    13     5     7   ar
    14     7     8   ar
    15     8    21    1
    16    21    22   ar
    17    22    23   ar
    18    23    24   ar
    19    24    25   ar
    20    25    26    1
    21    26    27    1
    22    27    28   ar
    23    28    29   ar
    24    29    30   ar
    25    30    31    1
    26    30    32   ar
    27    32    33   ar
    28     8     9   ar
    29     9    10   ar
    30    17    18   ar
    31    18    19   ar
    32    19    20    2
    33    20    12    1
    34    19    14   ar
    35    10     1   ar
    36    10     4   ar
    37    25    21   ar
    38    33    27   ar
@<TRIPOS>MOLECULE
*****
 33 38 0 0 0
SMALL
GASTEIGER

@<TRIPOS>ATOM
      1 N          63.5835   85.1149   14.3208 N.ar    1  UNL1       -0.2104
      2 N          63.7219   84.8291   15.7868 N.ar    1  UNL1       -0.0596
      3 N          63.7149   86.1393   16.5171 N.ar    1  UNL1       -0.1276
      4 C          63.5721   87.2348   15.5024 C.ar    1  UNL1        0.1326
      5 C          63.5055   88.7271   15.6391 C.ar    1  UNL1        0.0786
      6 CL         63.5867   89.3602   16.9965 Cl      1  UNL1       -0.0806
      7 C          63.3577   89.5861   14.4184 C.ar    1  UNL1        0.0146
      8 C          63.2765   88.9530   13.0610 C.ar    1  UNL1        0.0198
      9 C          63.3430   87.4607   12.9243 C.ar    1  UNL1        0.0223
     10 C          63.4909   86.6016   14.1450 C.ar    1  UNL1        0.1046
     11 O          62.5992   78.2958   10.5586 O.2     1  UNL1       -0.2484
     12 C          62.8654   79.6984   11.0188 C.2     1  UNL1        0.3478
     13 N          63.3318   80.8351   10.1584 N.am    1  UNL1       -0.1594
     14 C          63.4665   82.0498   11.0281 C.ar    1  UNL1        0.0904
     15 C          63.8886   83.4575   10.7277 C.ar    1  UNL1        0.0195
     16 C          63.9275   84.4791   11.8253 C.ar    1  UNL1        0.0206
     17 C          63.5445   84.0931   13.2232 C.ar    1  UNL1        0.0858
     18 C          63.1224   82.6854   13.5236 C.ar    1  UNL1        0.0372
     19 C          63.0835   81.6638   12.4261 C.ar    1  UNL1        0.0918
     20 N          62.7120   80.2105   12.4203 N.am    1  UNL1       -0.1593
     21 C          63.1287   89.8121   11.8404 C.ar    1  UNL1        0.0799
     22 C          63.9606   91.0135   11.5016 C.ar    1  UNL1        0.0412
     23 C          63.4690   91.5646   10.1960 C.ar    1  UNL1        0.1217
     24 N          62.3332   90.7039    9.7278 N.ar    1  UNL1       -0.1673
     25 N          62.1228   89.6208   10.7441 N.ar    1  UNL1       -0.2448
     26 C          61.0884   88.5367   10.6760 C.3     1  UNL1        0.1727
     27 C          61.1560   87.5026    9.5916 C.ar    1  UNL1        0.0837
     28 C          62.4384   86.7682    9.3344 C.ar    1  UNL1        0.0176
     29 C          62.5060   85.7341    8.2500 C.ar    1  UNL1        0.0142
     30 C          61.2911   85.4342    7.4228 C.ar    1  UNL1        0.0768
     31 CL         61.3587   84.4001    6.3384 Cl      1  UNL1       -0.0806
     32 C          60.0087   86.1686    7.6800 C.ar    1  UNL1        0.1098
     33 N          59.9412   87.2028    8.7644 N.ar    1  UNL1       -0.2453
@<TRIPOS>BOND
     1    11    12    2
     2    12    13    1
     3    13    14    2
     4    14    15   ar
     5    15    16   ar
     6    16    17   ar
     7    17     1    1
     8     1     2   ar
     9     2     3   ar
    10     3     4   ar
    11     4     5   ar
    12     5     6    1
    13     5     7   ar
    14     7     8   ar
    15     8    21    1
    16    21    22   ar
    17    22    23   ar
    18    23    24   ar
    19    24    25   ar
    20    25    26    1
    21    26    27    1
    22    27    28   ar
    23    28    29   ar
    24    29    30   ar
    25    30    31    1
    26    30    32   ar
    27    32    33   ar
    28     8     9   ar
    29     9    10   ar
    30    17    18   ar
    31    18    19   ar
    32    19    20    2
    33    20    12    1
    34    19    14   ar
    35    10     1   ar
    36    10     4   ar
    37    25    21   ar
    38    33    27   ar
@<TRIPOS>MOLECULE
*****
 33 38 0 0 0
SMALL
GASTEIGER

@<TRIPOS>ATOM
      1 N          63.4695   90.3934   12.3510 N.ar    1  UNL1       -0.2104
      2 N          62.8000   91.1069   11.2140 N.ar    1  UNL1       -0.0596
      3 N          62.1026   90.0817   10.3698 N.ar    1  UNL1       -0.1276
      4 C          62.3412   88.7346   10.9850 C.ar    1  UNL1        0.1326
      5 C          61.8983   87.3574   10.5885 C.ar    1  UNL1        0.0786
      6 CL         61.0535   87.1648    9.3640 Cl      1  UNL1       -0.0806
      7 C          62.3002   86.1730   11.4164 C.ar    1  UNL1        0.0146
      8 C          63.1450   86.3656   12.6409 C.ar    1  UNL1        0.0198
      9 C          63.5878   87.7428   13.0374 C.ar    1  UNL1        0.0223
     10 C          63.1859   88.9273   12.2095 C.ar    1  UNL1        0.1046
     11 O          69.1947   94.3317   16.0027 O.2     1  UNL1       -0.2484
     12 C          67.9894   93.5511   15.5690 C.2     1  UNL1        0.3478
     13 N          66.9039   93.0345   16.4661 N.am    1  UNL1       -0.1594
     14 C          65.9016   92.3142   15.6136 C.ar    1  UNL1        0.0904
     15 C          64.6248   91.6026   15.9500 C.ar    1  UNL1        0.0195
     16 C          63.8141   90.9623   14.8625 C.ar    1  UNL1        0.0206
     17 C          64.2803   91.0337   13.4385 C.ar    1  UNL1        0.0858
     18 C          65.5571   91.7454   13.1021 C.ar    1  UNL1        0.0372
     19 C          66.3678   92.3856   14.1897 C.ar    1  UNL1        0.0918
     20 N          67.6581   93.1501   14.1621 N.am    1  UNL1       -0.1593
     21 C          63.5468   85.1811   13.4687 C.ar    1  UNL1        0.0799
     22 C          64.1583   85.2285   14.8376 C.ar    1  UNL1        0.0412
     23 C          64.3971   83.8178   15.2878 C.ar    1  UNL1        0.1217
     24 N          63.9332   82.8983   14.1972 N.ar    1  UNL1       -0.1673
     25 N          63.4077   83.7408   13.0729 N.ar    1  UNL1       -0.2448
     26 C          62.8423   83.2325   11.7799 C.3     1  UNL1        0.1727
     27 C          62.8261   81.7597   11.4959 C.ar    1  UNL1        0.0837
     28 C          63.1339   81.2585   10.1161 C.ar    1  UNL1        0.0176
     29 C          63.1177   79.7857    9.8321 C.ar    1  UNL1        0.0142
     30 C          62.7937   78.8141   10.9281 C.ar    1  UNL1        0.0768
     31 CL         62.7774   77.3414   10.6441 Cl      1  UNL1       -0.0806
     32 C          62.4858   79.3154   12.3079 C.ar    1  UNL1        0.1098
     33 N          62.5020   80.7882   12.5918 N.ar    1  UNL1       -0.2453
@<TRIPOS>BOND
     1    11    12    2
     2    12    13    1
     3    13    14    2
     4    14    15   ar
     5    15    16   ar
     6    16    17   ar
     7    17     1    1
     8     1     2   ar
     9     2     3   ar
    10     3     4   ar
    11     4     5   ar
    12     5     6    1
    13     5     7   ar
    14     7     8   ar
    15     8    21    1
    16    21    22   ar
    17    22    23   ar
    18    23    24   ar
    19    24    25   ar
    20    25    26    1
    21    26    27    1
    22    27    28   ar
    23    28    29   ar
    24    29    30   ar
    25    30    31    1
    26    30    32   ar
    27    32    33   ar
    28     8     9   ar
    29     9    10   ar
    30    17    18   ar
    31    18    19   ar
    32    19    20    2
    33    20    12    1
    34    19    14   ar
    35    10     1   ar
    36    10     4   ar
    37    25    21   ar
    38    33    27   ar
@<TRIPOS>MOLECULE
*****
 33 38 0 0 0
SMALL
GASTEIGER

@<TRIPOS>ATOM
      1 N          61.4558   86.5730   10.6970 N.ar    1  UNL1       -0.2104
      2 N          60.1640   86.6078    9.9353 N.ar    1  UNL1       -0.0596
      3 N          59.6709   88.0244    9.9235 N.ar    1  UNL1       -0.1276
      4 C          60.6580   88.8651   10.6778 C.ar    1  UNL1        0.1326
      5 C          60.6949   90.3315   10.9912 C.ar    1  UNL1        0.0786
      6 CL         59.5917   91.2285   10.5131 Cl      1  UNL1       -0.0806
      7 C          61.8348   90.9009   11.7825 C.ar    1  UNL1        0.0146
      8 C          62.9379   90.0038   12.2606 C.ar    1  UNL1        0.0198
      9 C          62.9010   88.5374   11.9472 C.ar    1  UNL1        0.0223
     10 C          61.7611   87.9680   11.1558 C.ar    1  UNL1        0.1046
     11 O          64.5093   80.2798   14.2599 O.2     1  UNL1       -0.2484
     12 C          64.1054   81.4136   13.3647 C.2     1  UNL1        0.3478
     13 N          64.6597   81.7007   12.0008 N.am    1  UNL1       -0.1594
     14 C          63.9732   82.9239   11.4694 C.ar    1  UNL1        0.0904
     15 C          64.1128   83.6713   10.1765 C.ar    1  UNL1        0.0195
     16 C          63.2736   84.8877    9.9190 C.ar    1  UNL1        0.0206
     17 C          62.2949   85.3566   10.9545 C.ar    1  UNL1        0.0858
     18 C          62.1553   84.6091   12.2475 C.ar    1  UNL1        0.0372
     19 C          62.9945   83.3928   12.5049 C.ar    1  UNL1        0.0918
     20 N          63.0762   82.4594   13.6763 N.am    1  UNL1       -0.1593
     21 C          64.0778   90.5733   13.0519 C.ar    1  UNL1        0.0799
     22 C          65.2063   91.3966   12.5054 C.ar    1  UNL1        0.0412
     23 C          66.1153   91.7516   13.6446 C.ar    1  UNL1        0.1217
     24 N          65.5486   91.1477   14.8952 N.ar    1  UNL1       -0.1673
     25 N          64.2893   90.4195   14.5290 N.ar    1  UNL1       -0.2448
     26 C          63.3981   89.6693   15.4739 C.3     1  UNL1        0.1727
     27 C          63.5517   88.1855   15.6314 C.ar    1  UNL1        0.0837
     28 C          64.4329   87.4187   14.6903 C.ar    1  UNL1        0.0176
     29 C          64.5865   85.9350   14.8477 C.ar    1  UNL1        0.0142
     30 C          63.8590   85.2180   15.9463 C.ar    1  UNL1        0.0768
     31 CL         64.0127   83.7342   16.1037 Cl      1  UNL1       -0.0806
     32 C          62.9779   85.9848   16.8874 C.ar    1  UNL1        0.1098
     33 N          62.8243   87.4686   16.7299 N.ar    1  UNL1       -0.2453
@<TRIPOS>BOND
     1    11    12    2
     2    12    13    1
     3    13    14    2
     4    14    15   ar
     5    15    16   ar
     6    16    17   ar
     7    17     1    1
     8     1     2   ar
     9     2     3   ar
    10     3     4   ar
    11     4     5   ar
    12     5     6    1
    13     5     7   ar
    14     7     8   ar
    15     8    21    1
    16    21    22   ar
    17    22    23   ar
    18    23    24   ar
    19    24    25   ar
    20    25    26    1
    21    26    27    1
    22    27    28   ar
    23    28    29   ar
    24    29    30   ar
    25    30    31    1
    26    30    32   ar
    27    32    33   ar
    28     8     9   ar
    29     9    10   ar
    30    17    18   ar
    31    18    19   ar
    32    19    20    2
    33    20    12    1
    34    19    14   ar
    35    10     1   ar
    36    10     4   ar
    37    25    21   ar
    38    33    27   ar
