@<TRIPOS>MOLECULE
*****
 36 40 0 0 0
SMALL
GASTEIGER

@<TRIPOS>ATOM
      1 C          62.8402   86.9302   11.8641 C.3     1  UNL1        0.1275
      2 C          63.2317   88.1976   12.5644 C.2     1  UNL1        0.0260
      3 C          64.0642   87.8303   13.7568 C.2     1  UNL1        0.1519
      4 N          64.4556   89.0977   14.4571 N.2     1  UNL1       -0.1483
      5 N          63.8650   90.2484   13.6975 N.2     1  UNL1       -0.1720
      6 C          63.1085   89.6921   12.5277 C.3     1  UNL1        0.1514
      7 C          64.1874   86.3358   13.7935 C.2     1  UNL1        0.2722
      8 O          64.9356   85.5377   14.8197 O.2     1  UNL1       -0.2679
      9 N          63.4309   85.7795   12.6237 N.am    1  UNL1       -0.2479
     10 C          60.5874   87.3219   10.6305 C.ar    1  UNL1        0.1366
     11 C          59.7521   87.2226    9.3886 C.ar    1  UNL1        0.0366
     12 C          60.3341   86.6323    8.1384 C.ar    1  UNL1        0.0031
     13 C          61.7514   86.1414    8.1302 C.ar    1  UNL1       -0.0001
     14 C          62.5868   86.2407    9.3720 C.ar    1  UNL1        0.0007
     15 C          62.0049   86.8309   10.6222 C.ar    1  UNL1        0.0340
     16 C          58.7245   88.6898   11.8170 C.3     1  UNL1        0.2525
     17 O          60.0055   87.9121   11.8807 O.3     1  UNL1       -0.4717
     18 C          63.2899   84.3275   12.2749 C.ar    1  UNL1        0.0547
     19 C          63.9845   83.7759   11.0652 C.ar    1  UNL1        0.0150
     20 C          63.8435   82.3239   10.7163 C.ar    1  UNL1        0.0029
     21 C          63.0078   81.4234   11.5771 C.ar    1  UNL1        0.0210
     22 C          62.3132   81.9750   12.7868 C.ar    1  UNL1        0.0029
     23 C          62.4543   83.4271   13.1356 C.ar    1  UNL1        0.0150
     24 C          62.8668   79.9714   11.2282 C.ar    1  UNL1        0.1231
     25 C          62.8983   79.3897    9.8459 C.ar    1  UNL1        0.0658
     26 C          62.7205   77.9049    9.9637 C.ar    1  UNL1        0.2138
     27 O          62.5791   77.5690   11.4188 O.2     1  UNL1       -0.3502
     28 N          62.6696   78.8462   12.2003 N.ar    1  UNL1       -0.0768
     29 C          62.3603   90.4902   11.5015 C.3     1  UNL1        0.0802
     30 C          61.6121   91.2884   10.4752 C.3     1  UNL1        0.0074
     31 C          61.1423   90.4740   12.3768 C.3     1  UNL1        0.1417
     32 O          61.2160   89.8828   13.7534 O.3     1  UNL1       -0.3818
     33 H          61.3812   88.9293   13.6874 H       1  UNL1        0.2104
     34 C          63.5783   90.5065   10.6261 C.3     1  UNL1        0.1417
     35 O          64.6218   91.5678   10.8125 O.3     1  UNL1       -0.3818
     36 H          64.2472   92.4331   10.5852 H       1  UNL1        0.2104
@<TRIPOS>BOND
     1    16    17    1
     2    17    10    1
     3    10    11   ar
     4    11    12   ar
     5    12    13   ar
     6    13    14   ar
     7    14    15   ar
     8    15     1    1
     9     1     2    1
    10     2     3    2
    11     3     4    1
    12     4     5    2
    13     5     6    1
    14     6    29    1
    15    29    30    1
    16    29    31    1
    17    31    32    1
    18    29    34    1
    19    34    35    1
    20     3     7    1
    21     7     8    2
    22     7     9   am
    23     9    18    1
    24    18    19   ar
    25    19    20   ar
    26    20    21   ar
    27    21    24    1
    28    24    25   ar
    29    25    26   ar
    30    26    27   ar
    31    27    28   ar
    32    21    22   ar
    33    22    23   ar
    34    15    10   ar
    35     9     1    1
    36    23    18   ar
    37     6     2    1
    38    28    24   ar
    39    32    33    1
    40    35    36    1
@<TRIPOS>MOLECULE
*****
 36 40 0 0 0
SMALL
GASTEIGER

@<TRIPOS>ATOM
      1 C          62.5748   86.8780   11.7183 C.3     1  UNL1        0.1275
      2 C          62.9646   88.1656   12.3816 C.2     1  UNL1        0.0260
      3 C          63.9056   87.8426   13.5041 C.2     1  UNL1        0.1519
      4 N          64.2953   89.1303   14.1674 N.2     1  UNL1       -0.1483
      5 N          63.5951   90.2492   13.4548 N.2     1  UNL1       -0.1720
      6 C          62.7727   89.6530   12.3511 C.3     1  UNL1        0.1514
      7 C          64.0975   86.3552   13.5346 C.2     1  UNL1        0.2722
      8 O          64.9603   85.5971   14.4994 O.2     1  UNL1       -0.2679
      9 N          63.2750   85.7590   12.4309 N.am    1  UNL1       -0.2479
     10 C          62.1344   86.0989    9.2792 C.ar    1  UNL1        0.1366
     11 C          61.2073   85.9553    8.1087 C.ar    1  UNL1        0.0366
     12 C          59.7935   86.4472    8.2070 C.ar    1  UNL1        0.0031
     13 C          59.3070   87.0826    9.4757 C.ar    1  UNL1       -0.0001
     14 C          60.2341   87.2262   10.6461 C.ar    1  UNL1        0.0007
     15 C          61.6477   86.7344   10.5478 C.ar    1  UNL1        0.0340
     16 C          63.9989   84.8596    7.9612 C.3     1  UNL1        0.2525
     17 O          63.5480   85.6071    9.1809 O.3     1  UNL1       -0.4717
     18 C          63.1711   84.3001   12.0982 C.ar    1  UNL1        0.0547
     19 C          63.9597   83.7334   10.9550 C.ar    1  UNL1        0.0150
     20 C          63.8557   82.2746   10.6223 C.ar    1  UNL1        0.0029
     21 C          62.9630   81.3822   11.4329 C.ar    1  UNL1        0.0210
     22 C          62.1744   81.9488   12.5761 C.ar    1  UNL1        0.0029
     23 C          62.2784   83.4078   12.9087 C.ar    1  UNL1        0.0150
     24 C          62.8591   79.9233   11.1002 C.ar    1  UNL1        0.1231
     25 C          63.0057   79.3175    9.7358 C.ar    1  UNL1        0.0658
     26 C          62.8275   77.8338    9.8658 C.ar    1  UNL1        0.2138
     27 O          62.5707   77.5226   11.3105 O.2     1  UNL1       -0.3502
     28 N          62.5902   78.8140   12.0734 N.ar    1  UNL1       -0.0768
     29 C          61.9099   90.4111   11.3863 C.3     1  UNL1        0.0802
     30 C          61.0470   91.1692   10.4215 C.3     1  UNL1        0.0074
     31 C          60.7029   90.0992   12.2206 C.3     1  UNL1        0.1417
     32 O          59.3822   90.7313   11.8947 O.3     1  UNL1       -0.3818
     33 H          59.4373   91.6887   12.0403 H       1  UNL1        0.2104
     34 C          63.1168   90.7230   10.5520 C.3     1  UNL1        0.1417
     35 O          63.1180   91.9248    9.6544 O.3     1  UNL1       -0.3818
     36 H          62.4613   91.8034    8.9508 H       1  UNL1        0.2104
@<TRIPOS>BOND
     1    16    17    1
     2    17    10    1
     3    10    11   ar
     4    11    12   ar
     5    12    13   ar
     6    13    14   ar
     7    14    15   ar
     8    15     1    1
     9     1     2    1
    10     2     3    2
    11     3     4    1
    12     4     5    2
    13     5     6    1
    14     6    29    1
    15    29    30    1
    16    29    31    1
    17    31    32    1
    18    29    34    1
    19    34    35    1
    20     3     7    1
    21     7     8    2
    22     7     9   am
    23     9    18    1
    24    18    19   ar
    25    19    20   ar
    26    20    21   ar
    27    21    24    1
    28    24    25   ar
    29    25    26   ar
    30    26    27   ar
    31    27    28   ar
    32    21    22   ar
    33    22    23   ar
    34    15    10   ar
    35     9     1    1
    36    23    18   ar
    37     6     2    1
    38    28    24   ar
    39    32    33    1
    40    35    36    1
@<TRIPOS>MOLECULE
*****
 36 40 0 0 0
SMALL
GASTEIGER

@<TRIPOS>ATOM
      1 C          63.1452   85.0620   13.3815 C.3     1  UNL1        0.1275
      2 C          62.8392   83.9254   14.3113 C.2     1  UNL1        0.0260
      3 C          62.9121   84.4439   15.7170 C.2     1  UNL1        0.1519
      4 N          62.6062   83.3073   16.6468 N.2     1  UNL1       -0.1483
      5 N          62.3442   82.0864   15.8158 N.2     1  UNL1       -0.1720
      6 C          62.4882   82.4683   14.3724 C.3     1  UNL1        0.1514
      7 C          63.2632   85.9010   15.6559 C.2     1  UNL1        0.2722
      8 O          63.4393   86.8155   16.8318 O.2     1  UNL1       -0.2679
      9 N          63.4072   86.2830   14.2125 N.am    1  UNL1       -0.2479
     10 C          62.1651   85.7353   11.0715 C.ar    1  UNL1        0.1366
     11 C          62.2025   85.6636    9.5737 C.ar    1  UNL1        0.0366
     12 C          63.2574   84.8466    8.8881 C.ar    1  UNL1        0.0031
     13 C          64.2748   84.1015    9.7003 C.ar    1  UNL1       -0.0001
     14 C          64.2374   84.1733   11.1981 C.ar    1  UNL1        0.0007
     15 C          63.1826   84.9902   11.8837 C.ar    1  UNL1        0.0340
     16 C          60.2924   87.5332   10.9707 C.3     1  UNL1        0.2525
     17 O          61.1104   86.5522   11.7571 O.3     1  UNL1       -0.4717
     18 C          63.7526   87.6465   13.6916 C.ar    1  UNL1        0.0547
     19 C          63.2416   88.0896   12.3527 C.ar    1  UNL1        0.0150
     20 C          63.5870   89.4531   11.8318 C.ar    1  UNL1        0.0029
     21 C          64.4435   90.3737   12.6498 C.ar    1  UNL1        0.0210
     22 C          64.9545   89.9308   13.9887 C.ar    1  UNL1        0.0029
     23 C          64.6090   88.5671   14.5096 C.ar    1  UNL1        0.0150
     24 C          64.7889   91.7373   12.1288 C.ar    1  UNL1        0.1231
     25 C          64.6186   92.2103   10.7156 C.ar    1  UNL1        0.0658
     26 C          65.0897   93.6326   10.6429 C.ar    1  UNL1        0.2138
     27 O          65.5510   94.0385   12.0113 O.2     1  UNL1       -0.3502
     28 N          65.3651   92.8672   12.9297 N.ar    1  UNL1       -0.0768
     29 C          62.3121   81.5538   13.1966 C.3     1  UNL1        0.0802
     30 C          62.1360   80.6393   12.0207 C.3     1  UNL1        0.0074
     31 C          60.8237   81.6146   13.3721 C.3     1  UNL1        0.1417
     32 O          60.1523   80.7413   14.3902 O.3     1  UNL1       -0.3818
     33 H          60.2473   79.8113   14.1315 H       1  UNL1        0.2104
     34 C          63.8005   81.4930   13.0210 C.3     1  UNL1        0.1417
     35 O          64.6658   80.9696   14.1289 O.3     1  UNL1       -0.3818
     36 H          64.6165   81.5704   14.8889 H       1  UNL1        0.2104
@<TRIPOS>BOND
     1    16    17    1
     2    17    10    1
     3    10    11   ar
     4    11    12   ar
     5    12    13   ar
     6    13    14   ar
     7    14    15   ar
     8    15     1    1
     9     1     2    1
    10     2     3    2
    11     3     4    1
    12     4     5    2
    13     5     6    1
    14     6    29    1
    15    29    30    1
    16    29    31    1
    17    31    32    1
    18    29    34    1
    19    34    35    1
    20     3     7    1
    21     7     8    2
    22     7     9   am
    23     9    18    1
    24    18    19   ar
    25    19    20   ar
    26    20    21   ar
    27    21    24    1
    28    24    25   ar
    29    25    26   ar
    30    26    27   ar
    31    27    28   ar
    32    21    22   ar
    33    22    23   ar
    34    15    10   ar
    35     9     1    1
    36    23    18   ar
    37     6     2    1
    38    28    24   ar
    39    32    33    1
    40    35    36    1
