@<TRIPOS>MOLECULE
*****
 20 22 0 0 0
SMALL
GASTEIGER

@<TRIPOS>ATOM
      1 N          61.7931   88.1809    9.8124 N.am    1  UNL1       -0.3126
      2 C          62.0847   86.8904   10.5194 C.2     1  UNL1        0.3084
      3 O          61.6461   85.5890    9.9160 O.2     1  UNL1       -0.2521
      4 N          62.8150   86.9014   11.8296 N.am    1  UNL1       -0.2222
      5 C          63.0554   85.5579   12.4519 C.ar    1  UNL1        0.0595
      6 C          62.4965   84.4535   11.6046 C.ar    1  UNL1        0.0153
      7 C          62.6307   83.0269   12.0480 C.ar    1  UNL1        0.0013
      8 C          63.3238   82.7046   13.3387 C.ar    1  UNL1        0.0001
      9 C          63.8826   83.8090   14.1860 C.ar    1  UNL1        0.0012
     10 C          63.7485   85.2357   13.7426 C.ar    1  UNL1        0.0141
     11 C          64.3723   86.1773   14.7296 C.2     1  UNL1        0.0013
     12 C          64.4572   87.6737   14.6698 C.2     1  UNL1        0.0013
     13 C          63.9391   88.5981   13.6081 C.ar    1  UNL1        0.0141
     14 C          64.2354   90.0312   13.9371 C.ar    1  UNL1        0.0012
     15 C          63.8009   91.1207   13.0020 C.ar    1  UNL1        0.0001
     16 C          63.0701   90.7770   11.7381 C.ar    1  UNL1        0.0013
     17 C          62.7738   89.3439   11.4091 C.ar    1  UNL1        0.0153
     18 C          63.2083   88.2544   12.3441 C.ar    1  UNL1        0.0595
     19 H          61.3138   88.1736    8.9525 H       1  UNL1        0.1465
     20 H          62.0809   89.0350   10.2084 H       1  UNL1        0.1465
@<TRIPOS>BOND
     1     1     2   am
     2     2     3    2
     3     2     4   am
     4     4     5    1
     5     5     6   ar
     6     6     7   ar
     7     7     8   ar
     8     8     9   ar
     9     9    10   ar
    10    10    11    1
    11    11    12    2
    12    12    13    1
    13    13    14   ar
    14    14    15   ar
    15    15    16   ar
    16    16    17   ar
    17    17    18   ar
    18    18     4    1
    19    10     5   ar
    20    18    13   ar
    21     1    19    1
    22     1    20    1
@<TRIPOS>MOLECULE
*****
 20 22 0 0 0
SMALL
GASTEIGER

@<TRIPOS>ATOM
      1 N          61.6224   85.5705    9.9582 N.am    1  UNL1       -0.3126
      2 C          62.0691   86.8701   10.5596 C.2     1  UNL1        0.3084
      3 O          61.7750   88.1622    9.8567 O.2     1  UNL1       -0.2521
      4 N          62.8099   86.8775   11.8639 N.am    1  UNL1       -0.2222
      5 C          63.2107   88.2289   12.3770 C.ar    1  UNL1        0.0595
      6 C          62.7714   89.3206   11.4469 C.ar    1  UNL1        0.0153
      7 C          63.0739   90.7526   11.7754 C.ar    1  UNL1        0.0013
      8 C          63.8157   91.0928   13.0339 C.ar    1  UNL1        0.0001
      9 C          64.2550   90.0010   13.9640 C.ar    1  UNL1        0.0012
     10 C          63.9525   88.5691   13.6355 C.ar    1  UNL1        0.0141
     11 C          64.4767   87.6420   14.6918 C.2     1  UNL1        0.0013
     12 C          64.3887   86.1457   14.7504 C.2     1  UNL1        0.0013
     13 C          63.7546   85.2070   13.7672 C.ar    1  UNL1        0.0141
     14 C          63.8888   83.7794   14.2076 C.ar    1  UNL1        0.0012
     15 C          63.3203   82.6775   13.3634 C.ar    1  UNL1        0.0001
     16 C          62.6177   83.0031   12.0788 C.ar    1  UNL1        0.0013
     17 C          62.4835   84.4307   11.6384 C.ar    1  UNL1        0.0153
     18 C          63.0519   85.5326   12.4825 C.ar    1  UNL1        0.0595
     19 H          61.1362   85.5656    9.1021 H       1  UNL1        0.1465
     20 H          61.8155   84.7225   10.4195 H       1  UNL1        0.1465
@<TRIPOS>BOND
     1     1     2   am
     2     2     3    2
     3     2     4   am
     4     4     5    1
     5     5     6   ar
     6     6     7   ar
     7     7     8   ar
     8     8     9   ar
     9     9    10   ar
    10    10    11    1
    11    11    12    2
    12    12    13    1
    13    13    14   ar
    14    14    15   ar
    15    15    16   ar
    16    16    17   ar
    17    17    18   ar
    18    18     4    1
    19    10     5   ar
    20    18    13   ar
    21     1    19    1
    22     1    20    1
@<TRIPOS>MOLECULE
*****
 20 22 0 0 0
SMALL
GASTEIGER

@<TRIPOS>ATOM
      1 N          63.4020   85.7287   13.1252 N.am    1  UNL1       -0.3126
      2 C          62.5623   86.0348   11.9204 C.2     1  UNL1        0.3084
      3 O          61.9232   84.9187   11.1485 O.2     1  UNL1       -0.2521
      4 N          62.3619   87.4570   11.4877 N.am    1  UNL1       -0.2222
      5 C          61.5057   87.6527   10.2717 C.ar    1  UNL1        0.0595
      6 C          61.0162   86.3427    9.7295 C.ar    1  UNL1        0.0153
      7 C          60.1413   86.3151    8.5114 C.ar    1  UNL1        0.0013
      8 C          59.7559   87.5976    7.8356 C.ar    1  UNL1        0.0001
      9 C          60.2454   88.9076    8.3778 C.ar    1  UNL1        0.0012
     10 C          61.1203   88.9352    9.5959 C.ar    1  UNL1        0.0141
     11 C          61.4959   90.3386    9.9692 C.2     1  UNL1        0.0013
     12 C          62.3497   90.8063   11.1104 C.2     1  UNL1        0.0013
     13 C          63.0387   89.9859   12.1603 C.ar    1  UNL1        0.0141
     14 C          63.7955   90.8519   13.1233 C.ar    1  UNL1        0.0012
     15 C          64.5577   90.2273   14.2542 C.ar    1  UNL1        0.0001
     16 C          64.5631   88.7368   14.4221 C.ar    1  UNL1        0.0013
     17 C          63.8064   87.8708   13.4591 C.ar    1  UNL1        0.0153
     18 C          63.0442   88.4953   12.3282 C.ar    1  UNL1        0.0595
     19 H          63.5335   84.7952   13.4092 H       1  UNL1        0.1465
     20 H          63.8215   86.4611   13.6319 H       1  UNL1        0.1465
@<TRIPOS>BOND
     1     1     2   am
     2     2     3    2
     3     2     4   am
     4     4     5    1
     5     5     6   ar
     6     6     7   ar
     7     7     8   ar
     8     8     9   ar
     9     9    10   ar
    10    10    11    1
    11    11    12    2
    12    12    13    1
    13    13    14   ar
    14    14    15   ar
    15    15    16   ar
    16    16    17   ar
    17    17    18   ar
    18    18     4    1
    19    10     5   ar
    20    18    13   ar
    21     1    19    1
    22     1    20    1
@<TRIPOS>MOLECULE
*****
 20 22 0 0 0
SMALL
GASTEIGER

@<TRIPOS>ATOM
      1 N          62.0074   84.9619   11.1869 N.am    1  UNL1       -0.3126
      2 C          62.6325   86.0878   11.9562 C.2     1  UNL1        0.3084
      3 O          63.4850   85.7946   13.1551 O.2     1  UNL1       -0.2521
      4 N          62.4050   87.5069   11.5266 N.am    1  UNL1       -0.2222
      5 C          63.0750   88.5557   12.3640 C.ar    1  UNL1        0.0595
      6 C          63.8550   87.9429   13.4891 C.ar    1  UNL1        0.0153
      7 C          64.6031   88.8205   14.4483 C.ar    1  UNL1        0.0013
      8 C          64.5711   90.3110   14.2823 C.ar    1  UNL1        0.0001
      9 C          63.7911   90.9238   13.1572 C.ar    1  UNL1        0.0012
     10 C          63.0430   90.0461   12.1980 C.ar    1  UNL1        0.0141
     11 C          62.3333   90.8558   11.1536 C.2     1  UNL1        0.0013
     12 C          61.4803   90.3752   10.0173 C.2     1  UNL1        0.0013
     13 C          61.1262   88.9659    9.6447 C.ar    1  UNL1        0.0141
     14 C          60.2440   88.9248    8.4323 C.ar    1  UNL1        0.0012
     15 C          59.7734   87.6072    7.8915 C.ar    1  UNL1        0.0001
     16 C          60.1849   86.3307    8.5632 C.ar    1  UNL1        0.0013
     17 C          61.0671   86.3718    9.7756 C.ar    1  UNL1        0.0153
     18 C          61.5378   87.6894   10.3164 C.ar    1  UNL1        0.0595
     19 H          62.1567   84.0306   11.4689 H       1  UNL1        0.1465
     20 H          61.4479   85.1544   10.4000 H       1  UNL1        0.1465
@<TRIPOS>BOND
     1     1     2   am
     2     2     3    2
     3     2     4   am
     4     4     5    1
     5     5     6   ar
     6     6     7   ar
     7     7     8   ar
     8     8     9   ar
     9     9    10   ar
    10    10    11    1
    11    11    12    2
    12    12    13    1
    13    13    14   ar
    14    14    15   ar
    15    15    16   ar
    16    16    17   ar
    17    17    18   ar
    18    18     4    1
    19    10     5   ar
    20    18    13   ar
    21     1    19    1
    22     1    20    1
@<TRIPOS>MOLECULE
*****
 20 22 0 0 0
SMALL
GASTEIGER

@<TRIPOS>ATOM
      1 N          63.1460   90.7032   12.7776 N.am    1  UNL1       -0.3126
      2 C          62.3678   90.1041   11.6439 C.2     1  UNL1        0.3084
      3 O          61.6643   90.9953   10.6636 O.2     1  UNL1       -0.2521
      4 N          62.2931   88.6138   11.4904 N.am    1  UNL1       -0.2222
      5 C          61.4899   88.1192   10.3241 C.ar    1  UNL1        0.0595
      6 C          60.9136   89.2564    9.5338 C.ar    1  UNL1        0.0153
      7 C          60.0741   88.9783    8.3222 C.ar    1  UNL1        0.0013
      8 C          59.8109   87.5629    7.9010 C.ar    1  UNL1        0.0001
      9 C          60.3872   86.4257    8.6913 C.ar    1  UNL1        0.0012
     10 C          61.2266   86.7038    9.9028 C.ar    1  UNL1        0.0141
     11 C          61.7016   85.4336   10.5439 C.2     1  UNL1        0.0013
     12 C          62.5571   85.2649   11.7644 C.2     1  UNL1        0.0013
     13 C          63.1489   86.3250   12.6454 C.ar    1  UNL1        0.0141
     14 C          63.9443   85.7246   13.7665 C.ar    1  UNL1        0.0012
     15 C          64.6223   86.6146   14.7656 C.ar    1  UNL1        0.0001
     16 C          64.5048   88.1050   14.6437 C.ar    1  UNL1        0.0013
     17 C          63.7094   88.7054   13.5226 C.ar    1  UNL1        0.0153
     18 C          63.0314   87.8154   12.5235 C.ar    1  UNL1        0.0595
     19 H          63.1951   91.6813   12.8784 H       1  UNL1        0.1465
     20 H          63.6078   90.1184   13.4210 H       1  UNL1        0.1465
@<TRIPOS>BOND
     1     1     2   am
     2     2     3    2
     3     2     4   am
     4     4     5    1
     5     5     6   ar
     6     6     7   ar
     7     7     8   ar
     8     8     9   ar
     9     9    10   ar
    10    10    11    1
    11    11    12    2
    12    12    13    1
    13    13    14   ar
    14    14    15   ar
    15    15    16   ar
    16    16    17   ar
    17    17    18   ar
    18    18     4    1
    19    10     5   ar
    20    18    13   ar
    21     1    19    1
    22     1    20    1
@<TRIPOS>MOLECULE
*****
 20 22 0 0 0
SMALL
GASTEIGER

@<TRIPOS>ATOM
      1 N          61.7589   90.9829   10.4644 N.am    1  UNL1       -0.3126
      2 C          62.4413   90.1283   11.4911 C.2     1  UNL1        0.3084
      3 O          63.2322   90.7679   12.5936 O.2     1  UNL1       -0.2521
      4 N          62.3327   88.6341   11.4152 N.am    1  UNL1       -0.2222
      5 C          63.0521   87.8740   12.4899 C.ar    1  UNL1        0.0595
      6 C          63.7494   88.7993   13.4425 C.ar    1  UNL1        0.0153
      7 C          64.5302   88.2402   14.5948 C.ar    1  UNL1        0.0013
      8 C          64.6137   86.7559   14.7944 C.ar    1  UNL1        0.0001
      9 C          63.9164   85.8306   13.8418 C.ar    1  UNL1        0.0012
     10 C          63.1356   86.3897   12.6895 C.ar    1  UNL1        0.0141
     11 C          62.5204   85.2990   11.8638 C.2     1  UNL1        0.0013
     12 C          61.6698   85.4230   10.6345 C.2     1  UNL1        0.0013
     13 C          61.2243   86.6686    9.9274 C.ar    1  UNL1        0.0141
     14 C          60.3795   86.3469    8.7304 C.ar    1  UNL1        0.0012
     15 C          59.8297   87.4542    7.8808 C.ar    1  UNL1        0.0001
     16 C          60.1248   88.8832    8.2283 C.ar    1  UNL1        0.0013
     17 C          60.9696   89.2050    9.4252 C.ar    1  UNL1        0.0153
     18 C          61.5193   88.0977   10.2748 C.ar    1  UNL1        0.0595
     19 H          61.8301   91.9635   10.5142 H       1  UNL1        0.1465
     20 H          61.2398   90.5631    9.7408 H       1  UNL1        0.1465
@<TRIPOS>BOND
     1     1     2   am
     2     2     3    2
     3     2     4   am
     4     4     5    1
     5     5     6   ar
     6     6     7   ar
     7     7     8   ar
     8     8     9   ar
     9     9    10   ar
    10    10    11    1
    11    11    12    2
    12    12    13    1
    13    13    14   ar
    14    14    15   ar
    15    15    16   ar
    16    16    17   ar
    17    17    18   ar
    18    18     4    1
    19    10     5   ar
    20    18    13   ar
    21     1    19    1
    22     1    20    1
@<TRIPOS>MOLECULE
*****
 20 22 0 0 0
SMALL
GASTEIGER

@<TRIPOS>ATOM
      1 N          64.4576   88.8774   14.6033 N.am    1  UNL1       -0.3126
      2 C          64.2146   87.4301   14.2930 C.2     1  UNL1        0.3084
      3 O          64.6831   86.3700   15.2454 O.2     1  UNL1       -0.2521
      4 N          63.5033   87.0428   13.0305 N.am    1  UNL1       -0.2222
      5 C          63.3120   85.5705   12.8167 C.ar    1  UNL1        0.0595
      6 C          63.8912   84.7727   13.9471 C.ar    1  UNL1        0.0153
      7 C          63.8060   83.2753   13.9292 C.ar    1  UNL1        0.0013
      8 C          63.1415   82.5756   12.7808 C.ar    1  UNL1        0.0001
      9 C          62.5623   83.3734   11.6503 C.ar    1  UNL1        0.0012
     10 C          62.6475   84.8708   11.6682 C.ar    1  UNL1        0.0141
     11 C          62.0103   85.4707   10.4500 C.2     1  UNL1        0.0013
     12 C          61.8800   86.9183   10.0793 C.2     1  UNL1        0.0013
     13 C          62.3550   88.1237   10.8353 C.ar    1  UNL1        0.0141
     14 C          62.0210   89.3928   10.1089 C.ar    1  UNL1        0.0012
     15 C          62.4094   90.7175   10.6960 C.ar    1  UNL1        0.0001
     16 C          63.1318   90.7729   12.0093 C.ar    1  UNL1        0.0013
     17 C          63.4658   89.5037   12.7357 C.ar    1  UNL1        0.0153
     18 C          63.0775   88.1791   12.1487 C.ar    1  UNL1        0.0595
     19 H          64.9244   89.1316   15.4320 H       1  UNL1        0.1465
     20 H          64.1502   89.5732   13.9783 H       1  UNL1        0.1465
@<TRIPOS>BOND
     1     1     2   am
     2     2     3    2
     3     2     4   am
     4     4     5    1
     5     5     6   ar
     6     6     7   ar
     7     7     8   ar
     8     8     9   ar
     9     9    10   ar
    10    10    11    1
    11    11    12    2
    12    12    13    1
    13    13    14   ar
    14    14    15   ar
    15    15    16   ar
    16    16    17   ar
    17    17    18   ar
    18    18     4    1
    19    10     5   ar
    20    18    13   ar
    21     1    19    1
    22     1    20    1
@<TRIPOS>MOLECULE
*****
 20 22 0 0 0
SMALL
GASTEIGER

@<TRIPOS>ATOM
      1 N          64.7409   85.9017   15.3600 N.am    1  UNL1       -0.3126
      2 C          64.3074   87.0328   14.4752 C.2     1  UNL1        0.3084
      3 O          64.5828   88.4504   14.8811 O.2     1  UNL1       -0.2521
      4 N          63.5987   86.7463   13.1847 N.am    1  UNL1       -0.2222
      5 C          63.2089   87.9478   12.3756 C.ar    1  UNL1        0.0595
      6 C          63.6241   89.2212   13.0507 C.ar    1  UNL1        0.0153
      7 C          63.3280   90.5429   12.4061 C.ar    1  UNL1        0.0013
      8 C          62.6167   90.5910   11.0863 C.ar    1  UNL1        0.0001
      9 C          62.2015   89.3175   10.4112 C.ar    1  UNL1        0.0012
     10 C          62.4976   87.9959   11.0559 C.ar    1  UNL1        0.0141
     11 C          62.0004   86.8544   10.2193 C.2     1  UNL1        0.0013
     12 C          62.0916   85.3830   10.4957 C.2     1  UNL1        0.0013
     13 C          62.7027   84.6895   11.6772 C.ar    1  UNL1        0.0141
     14 C          62.5809   83.1990   11.5610 C.ar    1  UNL1        0.0012
     15 C          63.1300   82.3152   12.6416 C.ar    1  UNL1        0.0001
     16 C          63.8006   82.9219   13.8382 C.ar    1  UNL1        0.0013
     17 C          63.9223   84.4124   13.9544 C.ar    1  UNL1        0.0153
     18 C          63.3734   85.2962   12.8739 C.ar    1  UNL1        0.0595
     19 H          65.2061   86.0897   16.2071 H       1  UNL1        0.1465
     20 H          64.5602   84.9713   15.0937 H       1  UNL1        0.1465
@<TRIPOS>BOND
     1     1     2   am
     2     2     3    2
     3     2     4   am
     4     4     5    1
     5     5     6   ar
     6     6     7   ar
     7     7     8   ar
     8     8     9   ar
     9     9    10   ar
    10    10    11    1
    11    11    12    2
    12    12    13    1
    13    13    14   ar
    14    14    15   ar
    15    15    16   ar
    16    16    17   ar
    17    17    18   ar
    18    18     4    1
    19    10     5   ar
    20    18    13   ar
    21     1    19    1
    22     1    20    1
@<TRIPOS>MOLECULE
*****
 20 22 0 0 0
SMALL
GASTEIGER

@<TRIPOS>ATOM
      1 N          65.2374   93.2366    9.9944 N.am    1  UNL1       -0.3126
      2 C          65.7903   93.2688   11.3884 C.2     1  UNL1        0.3084
      3 O          66.8988   94.2186   11.7338 O.2     1  UNL1       -0.2521
      4 N          65.2347   92.3513   12.4370 N.am    1  UNL1       -0.2222
      5 C          65.8579   92.4641   13.7968 C.ar    1  UNL1        0.0595
      6 C          66.9389   93.5037   13.8197 C.ar    1  UNL1        0.0153
      7 C          67.6917   93.7750   15.0884 C.ar    1  UNL1        0.0013
      8 C          67.3635   93.0066   16.3342 C.ar    1  UNL1        0.0001
      9 C          66.2825   91.9670   16.3112 C.ar    1  UNL1        0.0012
     10 C          65.5297   91.6957   15.0426 C.ar    1  UNL1        0.0141
     11 C          64.4972   90.6249   15.2362 C.2     1  UNL1        0.0013
     12 C          63.5380   90.0580   14.2320 C.2     1  UNL1        0.0013
     13 C          63.3743   90.4219   12.7860 C.ar    1  UNL1        0.0141
     14 C          62.2940   89.6097   12.1354 C.ar    1  UNL1        0.0012
     15 C          61.9687   89.8182   10.6860 C.ar    1  UNL1        0.0001
     16 C          62.7238   90.8388    9.8872 C.ar    1  UNL1        0.0013
     17 C          63.8041   91.6509   10.5378 C.ar    1  UNL1        0.0153
     18 C          64.1294   91.4425   11.9871 C.ar    1  UNL1        0.0595
     19 H          65.6020   93.8388    9.3062 H       1  UNL1        0.1465
     20 H          64.5098   92.6133    9.7677 H       1  UNL1        0.1465
@<TRIPOS>BOND
     1     1     2   am
     2     2     3    2
     3     2     4   am
     4     4     5    1
     5     5     6   ar
     6     6     7   ar
     7     7     8   ar
     8     8     9   ar
     9     9    10   ar
    10    10    11    1
    11    11    12    2
    12    12    13    1
    13    13    14   ar
    14    14    15   ar
    15    15    16   ar
    16    16    17   ar
    17    17    18   ar
    18    18     4    1
    19    10     5   ar
    20    18    13   ar
    21     1    19    1
    22     1    20    1
