@<TRIPOS>MOLECULE
*****
 38 41 0 0 0
SMALL
GASTEIGER

@<TRIPOS>ATOM
      1 C          63.0417   90.9042   12.0995 C.ar    1  UNL1        0.1860
      2 N          64.2879   91.7331   12.1989 N.ar    1  UNL1       -0.2232
      3 C          65.3235   91.4088   13.2344 C.ar    1  UNL1        0.1195
      4 C          65.1130   90.2558   14.1704 C.ar    1  UNL1        0.1037
      5 N          63.8667   89.4269   14.0709 N.ar    1  UNL1       -0.2696
      6 C          62.8311   89.7512   13.0354 C.ar    1  UNL1        0.2963
      7 O          61.5848   88.9223   12.9359 O.2     1  UNL1       -0.2636
      8 C          63.6562   88.2739   15.0069 C.ar    1  UNL1        0.0632
      9 C          63.7691   86.8665   14.5005 C.ar    1  UNL1        0.0218
     10 C          63.5585   85.7134   15.4365 C.ar    1  UNL1        0.0548
     11 C          63.2351   85.9677   16.8789 C.ar    1  UNL1        0.0043
     12 C          63.1221   87.3751   17.3853 C.ar    1  UNL1       -0.0027
     13 C          63.3327   88.5281   16.4493 C.ar    1  UNL1       -0.0056
     14 C          63.2198   89.9356   16.9559 C.3     1  UNL1        0.0326
     15 C          63.6715   84.3060   14.9300 C.2     1  UNL1        0.2458
     16 O          65.0083   83.7600   14.5242 O.2     1  UNL1       -0.2701
     17 N          62.4476   83.4447   14.8293 N.am    1  UNL1       -0.3025
     18 H          61.5702   83.8030   15.0956 H       1  UNL1        0.1497
     19 C          62.5606   82.0373   14.3228 C.3     1  UNL1        0.0720
     20 C          63.3803   80.8035   14.0868 C.3     1  UNL1        0.0213
     21 C          61.9364   80.8335   13.6815 C.3     1  UNL1        0.0213
     22 N          62.0059   91.2285   11.0639 N.pl3   1  UNL1       -0.3139
     23 H          61.7213   92.1610   10.9275 H       1  UNL1        0.1485
     24 C          61.4039   90.1319   10.2363 C.3     1  UNL1        0.0776
     25 C          62.7608   89.7989    9.6905 C.3     1  UNL1        0.0243
     26 C          60.0470   90.4648   10.7822 C.3     1  UNL1        0.0243
     27 C          61.1103   87.6017    9.7244 C.ar    1  UNL1        0.1361
     28 C          60.5082   86.5051    8.8968 C.ar    1  UNL1        0.0366
     29 C          59.5976   86.8421    7.7534 C.ar    1  UNL1        0.0031
     30 C          59.2891   88.2757    7.4377 C.ar    1  UNL1       -0.0001
     31 C          59.8912   89.3722    8.2653 C.ar    1  UNL1        0.0003
     32 C          60.8018   89.0352    9.4087 C.ar    1  UNL1        0.0276
     33 O          62.0209   87.2647   10.8677 O.3     1  UNL1       -0.4742
     34 C          62.0049   85.8858   11.4579 C.3     1  UNL1        0.2224
     35 C          62.7732   84.7789   10.7987 C.3     1  UNL1        0.1166
     36 C          64.2785   82.6700   10.9911 C.3     1  UNL1        0.0860
     37 N          63.6283   83.8642   11.6247 N.3     1  UNL1       -0.2932
     38 H          64.3779   84.4349   12.0154 H       1  UNL1        0.1234
@<TRIPOS>BOND
     1    36    37    1
     2    37    35    1
     3    35    34    1
     4    34    33    1
     5    33    27    1
     6    27    28   ar
     7    28    29   ar
     8    29    30   ar
     9    30    31   ar
    10    31    32   ar
    11    32    24    1
    12    24    25    1
    13    24    26    1
    14    24    22    1
    15    22     1    1
    16     1     2   ar
    17     2     3   ar
    18     3     4   ar
    19     4     5   ar
    20     5     8    1
    21     8     9   ar
    22     9    10   ar
    23    10    15    1
    24    15    16    2
    25    15    17   am
    26    17    19    1
    27    19    20    1
    28    20    21    1
    29    10    11   ar
    30    11    12   ar
    31    12    13   ar
    32    13    14    1
    33     5     6   ar
    34     6     7    2
    35    32    27   ar
    36     6     1   ar
    37    13     8   ar
    38    21    19    1
    39    37    38    1
    40    22    23    1
    41    17    18    1
@<TRIPOS>MOLECULE
*****
 38 41 0 0 0
SMALL
GASTEIGER

@<TRIPOS>ATOM
      1 C          62.9229   90.9141   11.6661 C.ar    1  UNL1        0.1860
      2 N          64.0620   91.8839   11.7751 N.ar    1  UNL1       -0.2232
      3 C          65.0755   91.7302   12.8701 C.ar    1  UNL1        0.1195
      4 C          64.9499   90.6068   13.8561 C.ar    1  UNL1        0.1037
      5 N          63.8108   89.6371   13.7471 N.ar    1  UNL1       -0.2696
      6 C          62.7973   89.7907   12.6521 C.ar    1  UNL1        0.2963
      7 O          61.6581   88.8209   12.5430 O.2     1  UNL1       -0.2636
      8 C          63.6852   88.5136   14.7331 C.ar    1  UNL1        0.0632
      9 C          63.8442   87.0937   14.2765 C.ar    1  UNL1        0.0218
     10 C          63.7186   85.9703   15.2625 C.ar    1  UNL1        0.0548
     11 C          63.4340   86.2668   16.7050 C.ar    1  UNL1        0.0043
     12 C          63.2750   87.6867   17.1616 C.ar    1  UNL1       -0.0027
     13 C          63.4006   88.8101   16.1756 C.ar    1  UNL1       -0.0056
     14 C          63.2417   90.2301   16.6323 C.3     1  UNL1        0.0326
     15 C          63.8775   84.5503   14.8058 C.2     1  UNL1        0.2458
     16 O          65.2387   84.0199   14.4655 O.2     1  UNL1       -0.2701
     17 N          62.6754   83.6609   14.6895 N.am    1  UNL1       -0.3025
     18 H          61.7820   84.0090   14.9129 H       1  UNL1        0.1497
     19 C          62.8344   82.2410   14.2329 C.3     1  UNL1        0.0720
     20 C          63.7074   81.1242   13.7423 C.3     1  UNL1        0.0213
     21 C          62.2368   80.8983   13.9325 C.3     1  UNL1        0.0213
     22 N          61.9093   91.0677   10.5710 N.pl3   1  UNL1       -0.3139
     23 H          61.6064   91.9653   10.3030 H       1  UNL1        0.1485
     24 C          61.3573   89.8538    9.8843 C.3     1  UNL1        0.0776
     25 C          59.9723   90.2443   10.3075 C.3     1  UNL1        0.0243
     26 C          62.7424   89.4634    9.4611 C.3     1  UNL1        0.0243
     27 C          59.9849   88.7913    7.9510 C.ar    1  UNL1        0.1361
     28 C          59.4330   87.5773    7.2643 C.ar    1  UNL1        0.0366
     29 C          59.7014   86.2119    7.8241 C.ar    1  UNL1        0.0031
     30 C          60.5218   86.0604    9.0707 C.ar    1  UNL1       -0.0001
     31 C          61.0738   87.2744    9.7574 C.ar    1  UNL1        0.0003
     32 C          60.8053   88.6398    9.1975 C.ar    1  UNL1        0.0276
     33 O          59.7164   90.1568    7.3911 O.3     1  UNL1       -0.4742
     34 C          59.4721   90.3300    5.9213 C.3     1  UNL1        0.2224
     35 C          58.3191   91.1634    5.4458 C.3     1  UNL1        0.1166
     36 C          59.6899   92.5860    3.7585 C.3     1  UNL1        0.0860
     37 N          58.5731   92.4693    4.7529 N.3     1  UNL1       -0.2932
     38 H          57.7137   92.7135    4.2606 H       1  UNL1        0.1234
@<TRIPOS>BOND
     1    36    37    1
     2    37    35    1
     3    35    34    1
     4    34    33    1
     5    33    27    1
     6    27    28   ar
     7    28    29   ar
     8    29    30   ar
     9    30    31   ar
    10    31    32   ar
    11    32    24    1
    12    24    25    1
    13    24    26    1
    14    24    22    1
    15    22     1    1
    16     1     2   ar
    17     2     3   ar
    18     3     4   ar
    19     4     5   ar
    20     5     8    1
    21     8     9   ar
    22     9    10   ar
    23    10    15    1
    24    15    16    2
    25    15    17   am
    26    17    19    1
    27    19    20    1
    28    20    21    1
    29    10    11   ar
    30    11    12   ar
    31    12    13   ar
    32    13    14    1
    33     5     6   ar
    34     6     7    2
    35    32    27   ar
    36     6     1   ar
    37    13     8   ar
    38    21    19    1
    39    37    38    1
    40    22    23    1
    41    17    18    1
@<TRIPOS>MOLECULE
*****
 38 41 0 0 0
SMALL
GASTEIGER

@<TRIPOS>ATOM
      1 C          63.9865   86.6596   15.9307 C.ar    1  UNL1        0.1860
      2 N          63.4700   87.2220   17.2217 N.ar    1  UNL1       -0.2232
      3 C          62.8997   88.6088   17.2606 C.ar    1  UNL1        0.1195
      4 C          62.8458   89.4331   16.0086 C.ar    1  UNL1        0.1037
      5 N          63.3623   88.8706   14.7176 N.ar    1  UNL1       -0.2696
      6 C          63.9327   87.4838   14.6786 C.ar    1  UNL1        0.2963
      7 O          64.4493   86.9213   13.3875 O.2     1  UNL1       -0.2636
      8 C          63.3085   89.6948   13.4655 C.ar    1  UNL1        0.0632
      9 C          62.2035   89.4812   12.4739 C.ar    1  UNL1        0.0218
     10 C          62.1497   90.3055   11.2218 C.ar    1  UNL1        0.0548
     11 C          63.2008   91.3434   10.9613 C.ar    1  UNL1        0.0043
     12 C          64.3058   91.5570   11.9530 C.ar    1  UNL1       -0.0027
     13 C          64.3596   90.7327   13.2050 C.ar    1  UNL1       -0.0056
     14 C          65.4647   90.9464   14.1967 C.3     1  UNL1        0.0326
     15 C          61.0446   90.0918   10.2301 C.2     1  UNL1        0.2458
     16 O          59.7510   90.8367   10.3768 O.2     1  UNL1       -0.2701
     17 N          61.2333   89.1333    9.0919 N.am    1  UNL1       -0.3025
     18 H          62.0824   88.6444    8.9957 H       1  UNL1        0.1497
     19 C          60.1283   88.9197    8.1003 C.3     1  UNL1        0.0720
     20 C          58.9948   88.0879    7.5776 C.3     1  UNL1        0.0213
     21 C          59.3478   89.3816    6.9056 C.3     1  UNL1        0.0213
     22 N          64.5569   85.2727   15.8917 N.pl3   1  UNL1       -0.3139
     23 H          65.2776   85.0192   16.5127 H       1  UNL1        0.1485
     24 C          64.0293   84.2722   14.9066 C.3     1  UNL1        0.0776
     25 C          65.3857   84.1810   14.2728 C.3     1  UNL1        0.0243
     26 C          62.6729   84.3634   15.5404 C.3     1  UNL1        0.0243
     27 C          62.9803   83.7310   12.5921 C.ar    1  UNL1        0.1361
     28 C          62.4526   82.7304   11.6071 C.ar    1  UNL1        0.0366
     29 C          62.4463   81.2705   11.9513 C.ar    1  UNL1        0.0031
     30 C          62.9677   80.8111   13.2806 C.ar    1  UNL1       -0.0001
     31 C          63.4953   81.8117   14.2657 C.ar    1  UNL1        0.0003
     32 C          63.5016   83.2716   13.9214 C.ar    1  UNL1        0.0276
     33 O          62.9866   85.1909   12.2479 O.3     1  UNL1       -0.4742
     34 C          61.7140   85.8699   11.8362 C.3     1  UNL1        0.2224
     35 C          61.3460   85.9569   10.3847 C.3     1  UNL1        0.1166
     36 C          63.0762   85.1126    8.6401 C.3     1  UNL1        0.0860
     37 N          62.4023   86.2436    9.3589 N.3     1  UNL1       -0.2932
     38 H          61.9686   86.8292    8.6453 H       1  UNL1        0.1234
@<TRIPOS>BOND
     1    36    37    1
     2    37    35    1
     3    35    34    1
     4    34    33    1
     5    33    27    1
     6    27    28   ar
     7    28    29   ar
     8    29    30   ar
     9    30    31   ar
    10    31    32   ar
    11    32    24    1
    12    24    25    1
    13    24    26    1
    14    24    22    1
    15    22     1    1
    16     1     2   ar
    17     2     3   ar
    18     3     4   ar
    19     4     5   ar
    20     5     8    1
    21     8     9   ar
    22     9    10   ar
    23    10    15    1
    24    15    16    2
    25    15    17   am
    26    17    19    1
    27    19    20    1
    28    20    21    1
    29    10    11   ar
    30    11    12   ar
    31    12    13   ar
    32    13    14    1
    33     5     6   ar
    34     6     7    2
    35    32    27   ar
    36     6     1   ar
    37    13     8   ar
    38    21    19    1
    39    37    38    1
    40    22    23    1
    41    17    18    1
@<TRIPOS>MOLECULE
*****
 38 41 0 0 0
SMALL
GASTEIGER

@<TRIPOS>ATOM
      1 C          62.6789   88.7094   12.4894 C.ar    1  UNL1        0.1860
      2 N          63.1603   87.5890   13.3628 N.ar    1  UNL1       -0.2232
      3 C          64.3313   87.8000   14.2761 C.ar    1  UNL1        0.1195
      4 C          65.0209   89.1315   14.3160 C.ar    1  UNL1        0.1037
      5 N          64.5396   90.2519   13.4426 N.ar    1  UNL1       -0.2696
      6 C          63.3686   90.0408   12.5293 C.ar    1  UNL1        0.2963
      7 O          62.8872   91.1613   11.6558 O.2     1  UNL1       -0.2636
      8 C          65.2293   91.5833   13.4824 C.ar    1  UNL1        0.0632
      9 C          65.6226   92.2628   12.2043 C.ar    1  UNL1        0.0218
     10 C          66.3123   93.5942   12.2442 C.ar    1  UNL1        0.0548
     11 C          66.6086   94.2462   13.5622 C.ar    1  UNL1        0.0043
     12 C          66.2152   93.5668   14.8403 C.ar    1  UNL1       -0.0027
     13 C          65.5256   92.2353   14.8004 C.ar    1  UNL1       -0.0056
     14 C          65.1322   91.5559   16.0786 C.3     1  UNL1        0.0326
     15 C          66.7056   94.2737   10.9660 C.2     1  UNL1        0.2458
     16 O          67.9624   93.8659   10.2558 O.2     1  UNL1       -0.2701
     17 N          65.8423   95.3609   10.3981 N.am    1  UNL1       -0.3025
     18 H          65.0174   95.6285   10.8642 H       1  UNL1        0.1497
     19 C          66.2356   96.0403    9.1200 C.3     1  UNL1        0.0720
     20 C          65.8567   96.7908    7.8778 C.3     1  UNL1        0.0213
     21 C          67.2960   96.4665    8.1484 C.3     1  UNL1        0.0213
     22 N          61.5079   88.4984   11.5760 N.pl3   1  UNL1       -0.3139
     23 H          60.6641   88.9789   11.7385 H       1  UNL1        0.1485
     24 C          61.6224   87.5553   10.4153 C.3     1  UNL1        0.0776
     25 C          62.1653   88.6663    9.5662 C.3     1  UNL1        0.0243
     26 C          61.0796   86.4443   11.2643 C.3     1  UNL1        0.0243
     27 C          60.5974   86.4680    8.2899 C.ar    1  UNL1        0.1361
     28 C          60.7120   85.5249    7.1292 C.ar    1  UNL1        0.0366
     29 C          61.9662   84.7259    6.9330 C.ar    1  UNL1        0.0031
     30 C          63.1058   84.8700    7.8976 C.ar    1  UNL1       -0.0001
     31 C          62.9912   85.8131    9.0583 C.ar    1  UNL1        0.0003
     32 C          61.7370   86.6121    9.2545 C.ar    1  UNL1        0.0276
     33 O          59.3431   87.2671    8.4861 O.3     1  UNL1       -0.4742
     34 C          58.8284   88.1388    7.3792 C.3     1  UNL1        0.2224
     35 C          59.4281   89.4948    7.1519 C.3     1  UNL1        0.1166
     36 C          58.6193   91.2528    5.4183 C.3     1  UNL1        0.0860
     37 N          59.4752   90.0716    5.7679 N.3     1  UNL1       -0.2932
     38 H          60.4421   90.3475    5.5967 H       1  UNL1        0.1234
@<TRIPOS>BOND
     1    36    37    1
     2    37    35    1
     3    35    34    1
     4    34    33    1
     5    33    27    1
     6    27    28   ar
     7    28    29   ar
     8    29    30   ar
     9    30    31   ar
    10    31    32   ar
    11    32    24    1
    12    24    25    1
    13    24    26    1
    14    24    22    1
    15    22     1    1
    16     1     2   ar
    17     2     3   ar
    18     3     4   ar
    19     4     5   ar
    20     5     8    1
    21     8     9   ar
    22     9    10   ar
    23    10    15    1
    24    15    16    2
    25    15    17   am
    26    17    19    1
    27    19    20    1
    28    20    21    1
    29    10    11   ar
    30    11    12   ar
    31    12    13   ar
    32    13    14    1
    33     5     6   ar
    34     6     7    2
    35    32    27   ar
    36     6     1   ar
    37    13     8   ar
    38    21    19    1
    39    37    38    1
    40    22    23    1
    41    17    18    1
@<TRIPOS>MOLECULE
*****
 38 41 0 0 0
SMALL
GASTEIGER

@<TRIPOS>ATOM
      1 C          61.0211   88.1779   10.5070 C.ar    1  UNL1        0.1860
      2 N          59.6755   88.7859   10.7712 N.ar    1  UNL1       -0.2232
      3 C          59.5715   90.0774   11.5270 C.ar    1  UNL1        0.1195
      4 C          60.8130   90.7608   12.0186 C.ar    1  UNL1        0.1037
      5 N          62.1585   90.1528   11.7544 N.ar    1  UNL1       -0.2696
      6 C          62.2625   88.8614   10.9986 C.ar    1  UNL1        0.2963
      7 O          63.6081   88.2533   10.7343 O.2     1  UNL1       -0.2636
      8 C          63.3999   90.8362   12.2460 C.ar    1  UNL1        0.0632
      9 C          64.1916   91.7107   11.3195 C.ar    1  UNL1        0.0218
     10 C          65.4331   92.3942   11.8111 C.ar    1  UNL1        0.0548
     11 C          65.8829   92.2031   13.2292 C.ar    1  UNL1        0.0043
     12 C          65.0912   91.3286   14.1557 C.ar    1  UNL1       -0.0027
     13 C          63.8498   90.6452   13.6641 C.ar    1  UNL1       -0.0056
     14 C          63.0581   89.7706   14.5907 C.3     1  UNL1        0.0326
     15 C          66.2247   93.2687   10.8845 C.2     1  UNL1        0.2458
     16 O          67.6296   92.8935   10.5165 O.2     1  UNL1       -0.2701
     17 N          65.6115   94.5184   10.3259 N.am    1  UNL1       -0.3025
     18 H          64.6894   94.7647   10.5674 H       1  UNL1        0.1497
     19 C          66.4031   95.3929    9.3993 C.3     1  UNL1        0.0720
     20 C          66.9457   95.6797    8.0307 C.3     1  UNL1        0.0213
     21 C          67.2317   96.6208    9.1632 C.3     1  UNL1        0.0213
     22 N          61.1252   86.8864    9.7511 N.pl3   1  UNL1       -0.3139
     23 H          60.6237   86.7650    8.9126 H       1  UNL1        0.1485
     24 C          61.9933   85.7800   10.2728 C.3     1  UNL1        0.0776
     25 C          62.6834   85.6949    8.9437 C.3     1  UNL1        0.0243
     26 C          61.3031   85.8651   11.6018 C.3     1  UNL1        0.0243
     27 C          63.4211   84.7510   12.1840 C.ar    1  UNL1        0.1361
     28 C          64.2891   83.6446   12.7057 C.ar    1  UNL1        0.0366
     29 C          64.5975   82.4606   11.8379 C.ar    1  UNL1        0.0031
     30 C          64.0378   82.3831   10.4484 C.ar    1  UNL1       -0.0001
     31 C          63.1698   83.4895    9.9267 C.ar    1  UNL1        0.0003
     32 C          62.8614   84.6735   10.7945 C.ar    1  UNL1        0.0276
     33 O          63.1127   85.9350   13.0518 O.3     1  UNL1       -0.4742
     34 C          64.1303   86.4278   14.0375 C.3     1  UNL1        0.2224
     35 C          64.0722   85.9735   15.4659 C.3     1  UNL1        0.1166
     36 C          62.4961   86.3610   17.4947 C.3     1  UNL1        0.0860
     37 N          62.7451   85.7752   16.1364 N.3     1  UNL1       -0.2932
     38 H          62.0388   86.1664   15.5130 H       1  UNL1        0.1234
@<TRIPOS>BOND
     1    36    37    1
     2    37    35    1
     3    35    34    1
     4    34    33    1
     5    33    27    1
     6    27    28   ar
     7    28    29   ar
     8    29    30   ar
     9    30    31   ar
    10    31    32   ar
    11    32    24    1
    12    24    25    1
    13    24    26    1
    14    24    22    1
    15    22     1    1
    16     1     2   ar
    17     2     3   ar
    18     3     4   ar
    19     4     5   ar
    20     5     8    1
    21     8     9   ar
    22     9    10   ar
    23    10    15    1
    24    15    16    2
    25    15    17   am
    26    17    19    1
    27    19    20    1
    28    20    21    1
    29    10    11   ar
    30    11    12   ar
    31    12    13   ar
    32    13    14    1
    33     5     6   ar
    34     6     7    2
    35    32    27   ar
    36     6     1   ar
    37    13     8   ar
    38    21    19    1
    39    37    38    1
    40    22    23    1
    41    17    18    1
@<TRIPOS>MOLECULE
*****
 38 41 0 0 0
SMALL
GASTEIGER

@<TRIPOS>ATOM
      1 C          63.7071   86.1783   16.1112 C.ar    1  UNL1        0.1860
      2 N          62.7055   86.4940   17.1822 N.ar    1  UNL1       -0.2232
      3 C          62.1333   87.8764   17.2899 C.ar    1  UNL1        0.1195
      4 C          62.5628   88.9430   16.3266 C.ar    1  UNL1        0.1037
      5 N          63.5643   88.6273   15.2556 N.ar    1  UNL1       -0.2696
      6 C          64.1365   87.2449   15.1479 C.ar    1  UNL1        0.2963
      7 O          65.1382   86.9291   14.0769 O.2     1  UNL1       -0.2636
      8 C          63.9938   89.6939   14.2924 C.ar    1  UNL1        0.0632
      9 C          65.1326   90.6055   14.6416 C.ar    1  UNL1        0.0218
     10 C          65.5620   91.6721   13.6783 C.ar    1  UNL1        0.0548
     11 C          64.8526   91.8271   12.3658 C.ar    1  UNL1        0.0043
     12 C          63.7138   90.9155   12.0166 C.ar    1  UNL1       -0.0027
     13 C          63.2844   89.8489   12.9799 C.ar    1  UNL1       -0.0056
     14 C          62.1454   88.9373   12.6306 C.3     1  UNL1        0.0326
     15 C          66.7009   92.5837   14.0276 C.2     1  UNL1        0.2458
     16 O          67.1776   93.6025   13.0351 O.2     1  UNL1       -0.2701
     17 N          67.3631   92.4766   15.3692 N.am    1  UNL1       -0.3025
     18 H          67.0502   91.8080   16.0206 H       1  UNL1        0.1497
     19 C          68.5019   93.3882   15.7184 C.3     1  UNL1        0.0720
     20 C          69.9566   93.5920   16.0222 C.3     1  UNL1        0.0213
     21 C          69.0198   94.7634   16.0195 C.3     1  UNL1        0.0213
     22 N          64.2793   84.7958   16.0034 N.pl3   1  UNL1       -0.3139
     23 H          64.9277   84.4779   16.6726 H       1  UNL1        0.1485
     24 C          63.8637   83.8979   14.8762 C.3     1  UNL1        0.0776
     25 C          65.2735   83.8882   14.3641 C.3     1  UNL1        0.0243
     26 C          62.4539   83.9076   15.3882 C.3     1  UNL1        0.0243
     27 C          63.0641   83.5883   12.4236 C.ar    1  UNL1        0.1361
     28 C          62.6484   82.6903   11.2964 C.ar    1  UNL1        0.0366
     29 C          62.6166   81.2038   11.4943 C.ar    1  UNL1        0.0031
     30 C          63.0005   80.6153   12.8195 C.ar    1  UNL1       -0.0001
     31 C          63.4162   81.5133   13.9468 C.ar    1  UNL1        0.0003
     32 C          63.4480   82.9998   13.7488 C.ar    1  UNL1        0.0276
     33 O          63.0959   85.0749   12.2256 O.3     1  UNL1       -0.4742
     34 C          61.9544   85.7647   11.5393 C.3     1  UNL1        0.2224
     35 C          62.0580   86.1208   10.0858 C.3     1  UNL1        0.1166
     36 C          60.4019   87.7082    8.8662 C.3     1  UNL1        0.0860
     37 N          60.8137   86.3245    9.2731 N.3     1  UNL1       -0.2932
     38 H          60.9323   85.7879    8.4137 H       1  UNL1        0.1234
@<TRIPOS>BOND
     1    36    37    1
     2    37    35    1
     3    35    34    1
     4    34    33    1
     5    33    27    1
     6    27    28   ar
     7    28    29   ar
     8    29    30   ar
     9    30    31   ar
    10    31    32   ar
    11    32    24    1
    12    24    25    1
    13    24    26    1
    14    24    22    1
    15    22     1    1
    16     1     2   ar
    17     2     3   ar
    18     3     4   ar
    19     4     5   ar
    20     5     8    1
    21     8     9   ar
    22     9    10   ar
    23    10    15    1
    24    15    16    2
    25    15    17   am
    26    17    19    1
    27    19    20    1
    28    20    21    1
    29    10    11   ar
    30    11    12   ar
    31    12    13   ar
    32    13    14    1
    33     5     6   ar
    34     6     7    2
    35    32    27   ar
    36     6     1   ar
    37    13     8   ar
    38    21    19    1
    39    37    38    1
    40    22    23    1
    41    17    18    1
@<TRIPOS>MOLECULE
*****
 38 41 0 0 0
SMALL
GASTEIGER

@<TRIPOS>ATOM
      1 C          63.3786   84.7941   12.0932 C.ar    1  UNL1        0.1860
      2 N          63.4360   83.4887   12.8298 N.ar    1  UNL1       -0.2232
      3 C          63.5364   83.4758   14.3263 C.ar    1  UNL1        0.1195
      4 C          63.5794   84.7683   15.0863 C.ar    1  UNL1        0.1037
      5 N          63.5220   86.0737   14.3498 N.ar    1  UNL1       -0.2696
      6 C          63.4216   86.0866   12.8532 C.ar    1  UNL1        0.2963
      7 O          63.3642   87.3921   12.1166 O.2     1  UNL1       -0.2636
      8 C          63.5650   87.3662   15.1098 C.ar    1  UNL1        0.0632
      9 C          64.1480   88.5922   14.4720 C.ar    1  UNL1        0.0218
     10 C          64.1910   89.8847   15.2320 C.ar    1  UNL1        0.0548
     11 C          63.6510   89.9512   16.6298 C.ar    1  UNL1        0.0043
     12 C          63.0680   88.7251   17.2676 C.ar    1  UNL1       -0.0027
     13 C          63.0250   87.4326   16.5076 C.ar    1  UNL1       -0.0056
     14 C          62.4419   86.2065   17.1455 C.3     1  UNL1        0.0326
     15 C          64.7741   91.1108   14.5942 C.2     1  UNL1        0.2458
     16 O          65.2977   92.2251   15.4510 O.2     1  UNL1       -0.2701
     17 N          64.8335   91.2226   13.0995 N.am    1  UNL1       -0.3025
     18 H          64.4898   90.4912   12.5372 H       1  UNL1        0.1497
     19 C          65.4165   92.4486   12.4618 C.3     1  UNL1        0.0720
     20 C          65.7104   93.2598   11.2348 C.3     1  UNL1        0.0213
     21 C          66.1325   93.7610   12.5841 C.3     1  UNL1        0.0213
     22 N          63.2782   84.8071   10.5966 N.pl3   1  UNL1       -0.3139
     23 H          63.8782   84.2421   10.0581 H       1  UNL1        0.1485
     24 C          62.2637   85.6810    9.9205 C.3     1  UNL1        0.0776
     25 C          61.4055   85.6356   11.1498 C.3     1  UNL1        0.0243
     26 C          63.1220   85.7263    8.6912 C.3     1  UNL1        0.0243
     27 C          61.3719   88.0476    9.3257 C.ar    1  UNL1        0.1361
     28 C          60.3575   88.9214    8.6496 C.ar    1  UNL1        0.0366
     29 C          59.2203   88.3026    7.8921 C.ar    1  UNL1        0.0031
     30 C          59.0975   86.8098    7.8108 C.ar    1  UNL1       -0.0001
     31 C          60.1120   85.9360    8.4869 C.ar    1  UNL1        0.0003
     32 C          61.2492   86.5549    9.2444 C.ar    1  UNL1        0.0276
     33 O          62.5092   88.6665   10.0831 O.3     1  UNL1       -0.4742
     34 C          62.5131   90.1412   10.3576 C.3     1  UNL1        0.2224
     35 C          61.8039   90.6814   11.5639 C.3     1  UNL1        0.1166
     36 C          59.5835   89.5243   12.2576 C.3     1  UNL1        0.0860
     37 N          61.0508   89.7527   12.4697 N.3     1  UNL1       -0.2932
     38 H          61.5038   88.8415   12.3997 H       1  UNL1        0.1234
@<TRIPOS>BOND
     1    36    37    1
     2    37    35    1
     3    35    34    1
     4    34    33    1
     5    33    27    1
     6    27    28   ar
     7    28    29   ar
     8    29    30   ar
     9    30    31   ar
    10    31    32   ar
    11    32    24    1
    12    24    25    1
    13    24    26    1
    14    24    22    1
    15    22     1    1
    16     1     2   ar
    17     2     3   ar
    18     3     4   ar
    19     4     5   ar
    20     5     8    1
    21     8     9   ar
    22     9    10   ar
    23    10    15    1
    24    15    16    2
    25    15    17   am
    26    17    19    1
    27    19    20    1
    28    20    21    1
    29    10    11   ar
    30    11    12   ar
    31    12    13   ar
    32    13    14    1
    33     5     6   ar
    34     6     7    2
    35    32    27   ar
    36     6     1   ar
    37    13     8   ar
    38    21    19    1
    39    37    38    1
    40    22    23    1
    41    17    18    1
@<TRIPOS>MOLECULE
*****
 38 41 0 0 0
SMALL
GASTEIGER

@<TRIPOS>ATOM
      1 C          64.0284   90.8383   13.2878 C.ar    1  UNL1        0.1860
      2 N          64.2214   92.0295   12.3970 N.ar    1  UNL1       -0.2232
      3 C          63.7553   91.9837   10.9720 C.ar    1  UNL1        0.1195
      4 C          63.0961   90.7467   10.4379 C.ar    1  UNL1        0.1037
      5 N          62.9030   89.5555   11.3287 N.ar    1  UNL1       -0.2696
      6 C          63.3691   89.6013   12.7537 C.ar    1  UNL1        0.2963
      7 O          63.1761   88.4100   13.6447 O.2     1  UNL1       -0.2636
      8 C          62.2438   88.3185   10.7946 C.ar    1  UNL1        0.0632
      9 C          62.8096   86.9676   11.1186 C.ar    1  UNL1        0.0218
     10 C          62.1504   85.7306   10.5845 C.ar    1  UNL1        0.0548
     11 C          60.9254   85.8445    9.7264 C.ar    1  UNL1        0.0043
     12 C          60.3596   87.1953    9.4024 C.ar    1  UNL1       -0.0027
     13 C          61.0188   88.4323    9.9365 C.ar    1  UNL1       -0.0056
     14 C          60.4530   89.7832    9.6125 C.3     1  UNL1        0.0326
     15 C          62.7162   84.3797   10.9086 C.2     1  UNL1        0.2458
     16 O          63.6139   83.6873    9.9264 O.2     1  UNL1       -0.2701
     17 N          62.3844   83.7212   12.2148 N.am    1  UNL1       -0.3025
     18 H          61.7952   84.1757   12.8595 H       1  UNL1        0.1497
     19 C          62.9502   82.3704   12.5388 C.3     1  UNL1        0.0720
     20 C          63.8876   81.5115   13.3347 C.3     1  UNL1        0.0213
     21 C          62.9928   80.8895   12.3040 C.3     1  UNL1        0.0213
     22 N          64.4945   90.8840   14.7129 N.pl3   1  UNL1       -0.3139
     23 H          63.9841   90.4165   15.4130 H       1  UNL1        0.1485
     24 C          65.7383   91.6420   15.0712 C.3     1  UNL1        0.0776
     25 C          64.9956   92.3407   16.1712 C.3     1  UNL1        0.0243
     26 C          66.4810   90.9433   13.9711 C.3     1  UNL1        0.0243
     27 C          67.2296   93.7569   14.8399 C.ar    1  UNL1        0.1361
     28 C          68.4734   94.5148   15.1982 C.ar    1  UNL1        0.0366
     29 C          69.4698   93.9158   16.1460 C.ar    1  UNL1        0.0031
     30 C          69.2224   92.5589   16.7355 C.ar    1  UNL1       -0.0001
     31 C          67.9786   91.8010   16.3772 C.ar    1  UNL1        0.0003
     32 C          66.9822   92.4000   15.4294 C.ar    1  UNL1        0.0276
     33 O          66.2331   94.3559   13.8921 O.3     1  UNL1       -0.4742
     34 C          66.4249   94.2103   12.4116 C.3     1  UNL1        0.2224
     35 C          66.0576   95.3380   11.4932 C.3     1  UNL1        0.1166
     36 C          66.9290   94.9514    9.0764 C.3     1  UNL1        0.0860
     37 N          65.7877   95.0667   10.0428 N.3     1  UNL1       -0.2932
     38 H          65.2743   94.1864    9.9986 H       1  UNL1        0.1234
@<TRIPOS>BOND
     1    36    37    1
     2    37    35    1
     3    35    34    1
     4    34    33    1
     5    33    27    1
     6    27    28   ar
     7    28    29   ar
     8    29    30   ar
     9    30    31   ar
    10    31    32   ar
    11    32    24    1
    12    24    25    1
    13    24    26    1
    14    24    22    1
    15    22     1    1
    16     1     2   ar
    17     2     3   ar
    18     3     4   ar
    19     4     5   ar
    20     5     8    1
    21     8     9   ar
    22     9    10   ar
    23    10    15    1
    24    15    16    2
    25    15    17   am
    26    17    19    1
    27    19    20    1
    28    20    21    1
    29    10    11   ar
    30    11    12   ar
    31    12    13   ar
    32    13    14    1
    33     5     6   ar
    34     6     7    2
    35    32    27   ar
    36     6     1   ar
    37    13     8   ar
    38    21    19    1
    39    37    38    1
    40    22    23    1
    41    17    18    1
@<TRIPOS>MOLECULE
*****
 38 41 0 0 0
SMALL
GASTEIGER

@<TRIPOS>ATOM
      1 C          63.5961   89.4233   15.4585 C.ar    1  UNL1        0.1860
      2 N          63.3568   89.0264   16.8851 N.ar    1  UNL1       -0.2232
      3 C          63.2039   87.5783   17.2450 C.ar    1  UNL1        0.1195
      4 C          63.2903   86.5272   16.1784 C.ar    1  UNL1        0.1037
      5 N          63.5297   86.9241   14.7518 N.ar    1  UNL1       -0.2696
      6 C          63.6826   88.3722   14.3919 C.ar    1  UNL1        0.2963
      7 O          63.9220   88.7692   12.9653 O.2     1  UNL1       -0.2636
      8 C          63.6162   85.8730   13.6852 C.ar    1  UNL1        0.0632
      9 C          62.9349   86.0854   12.3659 C.ar    1  UNL1        0.0218
     10 C          63.0214   85.0343   11.2993 C.ar    1  UNL1        0.0548
     11 C          63.7891   83.7707   11.5520 C.ar    1  UNL1        0.0043
     12 C          64.4704   83.5583   12.8714 C.ar    1  UNL1       -0.0027
     13 C          64.3839   84.6094   13.9380 C.ar    1  UNL1       -0.0056
     14 C          65.0653   84.3969   15.2573 C.3     1  UNL1        0.0326
     15 C          62.3400   85.2468    9.9799 C.2     1  UNL1        0.2458
     16 O          62.9721   84.7369    8.7187 O.2     1  UNL1       -0.2701
     17 N          61.0267   85.9691    9.9218 N.am    1  UNL1       -0.3025
     18 H          60.6119   86.3038   10.7495 H       1  UNL1        0.1497
     19 C          60.3455   86.1816    8.6024 C.3     1  UNL1        0.0720
     20 C          60.2389   85.8936    7.1342 C.3     1  UNL1        0.0213
     21 C          59.2720   86.8375    7.7855 C.3     1  UNL1        0.0213
     22 N          63.7490   90.8715   15.0985 N.pl3   1  UNL1       -0.3139
     23 H          62.9788   91.3761   14.7500 H       1  UNL1        0.1485
     24 C          65.0754   91.5508   15.2695 C.3     1  UNL1        0.0776
     25 C          64.5754   92.2124   16.5194 C.3     1  UNL1        0.0243
     26 C          65.5753   90.8893   14.0195 C.3     1  UNL1        0.0243
     27 C          66.7497   93.4196   14.5953 C.ar    1  UNL1        0.1361
     28 C          68.0761   94.0989   14.7662 C.ar    1  UNL1        0.0366
     29 C          69.0546   93.5887   15.7823 C.ar    1  UNL1        0.0031
     30 C          68.7067   92.3993   16.6273 C.ar    1  UNL1       -0.0001
     31 C          67.3803   91.7200   16.4564 C.ar    1  UNL1        0.0003
     32 C          66.4018   92.2302   15.4404 C.ar    1  UNL1        0.0276
     33 O          65.7712   93.9297   13.5793 O.3     1  UNL1       -0.4742
     34 C          66.2047   94.1362   12.1582 C.3     1  UNL1        0.2224
     35 C          66.4019   92.9550   11.2550 C.3     1  UNL1        0.1166
     36 C          68.3821   92.5400    9.6250 C.3     1  UNL1        0.0860
     37 N          67.7835   92.4313   10.9961 N.3     1  UNL1       -0.2932
     38 H          68.4099   92.9264   11.6309 H       1  UNL1        0.1234
@<TRIPOS>BOND
     1    36    37    1
     2    37    35    1
     3    35    34    1
     4    34    33    1
     5    33    27    1
     6    27    28   ar
     7    28    29   ar
     8    29    30   ar
     9    30    31   ar
    10    31    32   ar
    11    32    24    1
    12    24    25    1
    13    24    26    1
    14    24    22    1
    15    22     1    1
    16     1     2   ar
    17     2     3   ar
    18     3     4   ar
    19     4     5   ar
    20     5     8    1
    21     8     9   ar
    22     9    10   ar
    23    10    15    1
    24    15    16    2
    25    15    17   am
    26    17    19    1
    27    19    20    1
    28    20    21    1
    29    10    11   ar
    30    11    12   ar
    31    12    13   ar
    32    13    14    1
    33     5     6   ar
    34     6     7    2
    35    32    27   ar
    36     6     1   ar
    37    13     8   ar
    38    21    19    1
    39    37    38    1
    40    22    23    1
    41    17    18    1
