@<TRIPOS>MOLECULE
*****
 43 47 0 0 0
SMALL
GASTEIGER

@<TRIPOS>ATOM
      1 C          61.0540   93.3059    1.7784 C.3     1  UNL1        0.1139
      2 C          60.1962   90.7119    5.3540 C.ar    1  UNL1       -0.0000
      3 C          61.5732   90.7383    4.7595 C.ar    1  UNL1       -0.0003
      4 C          61.8591   91.6029    3.5677 C.ar    1  UNL1       -0.0026
      5 C          60.7681   92.4413    2.9703 C.ar    1  UNL1       -0.0029
      6 C          59.3912   92.4150    3.5647 C.ar    1  UNL1       -0.0026
      7 C          59.1052   91.5503    4.7566 C.ar    1  UNL1       -0.0003
      8 C          60.1053   89.3961    9.0970 C.ar    1  UNL1        0.0534
      9 C          59.3384   88.1178    8.9296 C.ar    1  UNL1        0.0045
     10 C          58.8575   87.7043    7.5703 C.ar    1  UNL1        0.0001
     11 C          59.1434   88.5690    6.3785 C.ar    1  UNL1        0.0000
     12 C          59.9103   89.8473    6.5459 C.ar    1  UNL1        0.0001
     13 C          60.3912   90.2608    7.9052 C.ar    1  UNL1        0.0045
     14 C          62.4763   89.9257   12.2352 C.3     1  UNL1        0.1109
     15 N          61.9953   89.5121   10.8759 N.am    1  UNL1       -0.2992
     16 C          60.5862   89.8097   10.4563 C.2     1  UNL1        0.2459
     17 O          59.6582   90.5207   11.3960 O.2     1  UNL1       -0.2701
     18 H          62.6045   89.0454   10.2592 H       1  UNL1        0.1498
     19 N          60.1681   94.4768    1.4715 N.am    1  UNL1       -0.2727
     20 C          60.1648   95.6725    2.3771 C.3     1  UNL1        0.1152
     21 C          59.2856   94.4520    0.2588 C.2     1  UNL1        0.2491
     22 O          58.3997   95.6229   -0.0482 O.2     1  UNL1       -0.2727
     23 C          59.2889   93.2563   -0.6469 C.3     1  UNL1        0.1943
     24 N          58.5853   93.3159   -1.9703 N.ar    1  UNL1       -0.2839
     25 C          57.1412   92.9227   -2.0703 C.ar    1  UNL1        0.2806
     26 O          56.4007   92.4700   -0.8469 O.2     1  UNL1       -0.2652
     27 C          56.4376   92.9823   -3.3937 C.ar    1  UNL1        0.1595
     28 N          57.1781   93.4350   -4.6171 N.ar    1  UNL1       -0.2374
     29 C          58.6222   93.8281   -4.5171 C.ar    1  UNL1        0.0970
     30 C          59.3627   94.2809   -5.7405 C.ar    1  UNL1        0.0160
     31 C          60.8067   94.6740   -5.6405 C.ar    1  UNL1       -0.0242
     32 C          61.5472   95.1267   -6.8639 C.3     1  UNL1        0.0307
     33 C          61.5104   94.6145   -4.3171 C.ar    1  UNL1       -0.0243
     34 C          62.9545   95.0076   -4.2171 C.3     1  UNL1        0.0307
     35 C          60.7699   94.1618   -3.0937 C.ar    1  UNL1        0.0142
     36 C          59.3258   93.7686   -3.1937 C.ar    1  UNL1        0.0803
     37 C          62.2258   92.9997    0.8934 C.3     1  UNL1        0.0968
     38 N          63.2911   94.0330    0.6752 N.3     1  UNL1       -0.2667
     39 C          63.8219   94.8198    1.8368 C.3     1  UNL1        0.1047
     40 C          64.8872   95.8531    1.6186 C.3     1  UNL1        0.1595
     41 O          65.4216   96.0995    0.2388 O.3     1  UNL1       -0.3508
     42 C          64.8907   95.3127   -0.9227 C.3     1  UNL1        0.1595
     43 C          63.8255   94.2795   -0.7045 C.3     1  UNL1        0.1047
@<TRIPOS>BOND
     1    14    15    1
     2    15    16   am
     3    16    17    2
     4    16     8    1
     5     8     9   ar
     6     9    10   ar
     7    10    11   ar
     8    11    12   ar
     9    12     2    1
    10     2     3   ar
    11     3     4   ar
    12     4     5   ar
    13     5     1    1
    14     1    37    1
    15    37    38    1
    16    38    39    1
    17    39    40    1
    18    40    41    1
    19    41    42    1
    20    42    43    1
    21     1    19    1
    22    19    20    1
    23    19    21   am
    24    21    22    2
    25    21    23    1
    26    23    24    1
    27    24    25   ar
    28    25    26    2
    29    25    27   ar
    30    27    28   ar
    31    28    29   ar
    32    29    30   ar
    33    30    31   ar
    34    31    32    1
    35    31    33   ar
    36    33    34    1
    37    33    35   ar
    38    35    36   ar
    39     5     6   ar
    40     6     7   ar
    41    12    13   ar
    42    13     8   ar
    43     7     2   ar
    44    43    38    1
    45    36    24   ar
    46    36    29   ar
    47    15    18    1
@<TRIPOS>MOLECULE
*****
 43 47 0 0 0
SMALL
GASTEIGER

@<TRIPOS>ATOM
      1 C          64.1777   89.8841   13.6425 C.3     1  UNL1        0.1139
      2 C          61.4393   88.9532   10.1951 C.ar    1  UNL1       -0.0000
      3 C          62.2248   87.8540   10.8471 C.ar    1  UNL1       -0.0003
      4 C          63.1376   88.1643   11.9962 C.ar    1  UNL1       -0.0026
      5 C          63.2649   89.5738   12.4934 C.ar    1  UNL1       -0.0029
      6 C          62.4796   90.6729   11.8415 C.ar    1  UNL1       -0.0026
      7 C          61.5667   90.3627   10.6924 C.ar    1  UNL1       -0.0003
      8 C          59.2598   89.4049    6.9095 C.ar    1  UNL1        0.0534
      9 C          58.7009   88.0223    6.7478 C.ar    1  UNL1        0.0045
     10 C          59.0549   86.9500    7.7352 C.ar    1  UNL1        0.0001
     11 C          59.9677   87.2604    8.8843 C.ar    1  UNL1        0.0000
     12 C          60.5265   88.6429    9.0460 C.ar    1  UNL1        0.0001
     13 C          60.1726   89.7152    8.0586 C.ar    1  UNL1        0.0045
     14 C          59.6373   92.3069    4.2289 C.3     1  UNL1        0.1109
     15 N          59.9913   91.2346    5.2163 N.am    1  UNL1       -0.2992
     16 C          58.9058   90.4771    5.9221 C.2     1  UNL1        0.2459
     17 O          57.4666   90.7919    5.6406 O.2     1  UNL1       -0.2701
     18 H          60.9359   91.0280    5.4011 H       1  UNL1        0.1498
     19 N          63.7018   89.6907   15.0518 N.am    1  UNL1       -0.2727
     20 C          63.2714   90.8738   15.8671 C.3     1  UNL1        0.1152
     21 C          63.6563   88.3140   15.6458 C.2     1  UNL1        0.2491
     22 O          63.1804   88.1206   17.0551 O.2     1  UNL1       -0.2727
     23 C          64.0867   87.1308   14.8305 C.3     1  UNL1        0.1943
     24 N          63.5661   85.7632   15.1604 N.ar    1  UNL1       -0.2839
     25 C          63.2442   85.4058   16.5811 C.ar    1  UNL1        0.2806
     26 O          63.4429   86.4159   17.6721 O.2     1  UNL1       -0.2652
     27 C          62.7236   84.0383   16.9109 C.ar    1  UNL1        0.1595
     28 N          62.5248   83.0282   15.8200 N.ar    1  UNL1       -0.2374
     29 C          62.8467   83.3856   14.3992 C.ar    1  UNL1        0.0970
     30 C          62.6480   82.3755   13.3083 C.ar    1  UNL1        0.0160
     31 C          62.9698   82.7329   11.8875 C.ar    1  UNL1       -0.0242
     32 C          62.7711   81.7227   10.7966 C.3     1  UNL1        0.0307
     33 C          63.4905   84.1004   11.5576 C.ar    1  UNL1       -0.0243
     34 C          63.8124   84.4578   10.1369 C.3     1  UNL1        0.0307
     35 C          63.6892   85.1106   12.6486 C.ar    1  UNL1        0.0142
     36 C          63.3673   84.7531   14.0694 C.ar    1  UNL1        0.0803
     37 C          65.5665   90.3878   13.3824 C.3     1  UNL1        0.0968
     38 N          65.8005   91.8489   13.1365 N.3     1  UNL1       -0.2667
     39 C          65.5063   92.4392   11.7892 C.3     1  UNL1        0.1047
     40 C          65.7403   93.9003   11.5433 C.3     1  UNL1        0.1595
     41 O          66.2686   94.7710   12.6446 O.3     1  UNL1       -0.3508
     42 C          66.5629   94.1807   13.9918 C.3     1  UNL1        0.1595
     43 C          66.3288   92.7196   14.2377 C.3     1  UNL1        0.1047
@<TRIPOS>BOND
     1    14    15    1
     2    15    16   am
     3    16    17    2
     4    16     8    1
     5     8     9   ar
     6     9    10   ar
     7    10    11   ar
     8    11    12   ar
     9    12     2    1
    10     2     3   ar
    11     3     4   ar
    12     4     5   ar
    13     5     1    1
    14     1    37    1
    15    37    38    1
    16    38    39    1
    17    39    40    1
    18    40    41    1
    19    41    42    1
    20    42    43    1
    21     1    19    1
    22    19    20    1
    23    19    21   am
    24    21    22    2
    25    21    23    1
    26    23    24    1
    27    24    25   ar
    28    25    26    2
    29    25    27   ar
    30    27    28   ar
    31    28    29   ar
    32    29    30   ar
    33    30    31   ar
    34    31    32    1
    35    31    33   ar
    36    33    34    1
    37    33    35   ar
    38    35    36   ar
    39     5     6   ar
    40     6     7   ar
    41    12    13   ar
    42    13     8   ar
    43     7     2   ar
    44    43    38    1
    45    36    24   ar
    46    36    29   ar
    47    15    18    1
@<TRIPOS>MOLECULE
*****
 43 47 0 0 0
SMALL
GASTEIGER

@<TRIPOS>ATOM
      1 C          63.6338   88.3516   14.4063 C.3     1  UNL1        0.1139
      2 C          61.4536   87.8898   10.4969 C.ar    1  UNL1       -0.0000
      3 C          61.5918   89.2459   11.1230 C.ar    1  UNL1       -0.0003
      4 C          62.3185   89.3998   12.4261 C.ar    1  UNL1       -0.0026
      5 C          62.9071   88.1977   13.1032 C.ar    1  UNL1       -0.0029
      6 C          62.7689   86.8416   12.4772 C.ar    1  UNL1       -0.0026
      7 C          62.0421   86.6876   11.1740 C.ar    1  UNL1       -0.0003
      8 C          59.7017   88.7887    7.0512 C.ar    1  UNL1        0.0534
      9 C          59.2733   87.4279    6.5876 C.ar    1  UNL1        0.0045
     10 C          59.5717   86.2212    7.4270 C.ar    1  UNL1        0.0001
     11 C          60.2985   86.3752    8.7302 C.ar    1  UNL1        0.0000
     12 C          60.7268   87.7359    9.1938 C.ar    1  UNL1        0.0001
     13 C          60.4285   88.9426    8.3543 C.ar    1  UNL1        0.0045
     14 C          57.6834   91.5685    5.0641 C.3     1  UNL1        0.1109
     15 N          57.9817   90.3618    5.9035 N.am    1  UNL1       -0.2992
     16 C          59.4033   89.9954    6.2118 C.2     1  UNL1        0.2459
     17 O          60.5265   90.8359    5.6806 O.2     1  UNL1       -0.2701
     18 H          57.2446   89.8102    6.2522 H       1  UNL1        0.1498
     19 N          63.2490   89.4481   15.3547 N.am    1  UNL1       -0.2727
     20 C          61.9123   89.4169   16.0346 C.3     1  UNL1        0.1152
     21 C          64.2009   90.5759   15.6232 C.2     1  UNL1        0.2491
     22 O          63.8161   91.6725   16.5716 O.2     1  UNL1       -0.2727
     23 C          65.5376   90.6071   14.9433 C.3     1  UNL1        0.1943
     24 N          66.2046   91.9206   14.6602 N.ar    1  UNL1       -0.2839
     25 C          67.1113   92.5373   15.6836 C.ar    1  UNL1        0.2806
     26 O          67.3512   91.8406   16.9901 O.2     1  UNL1       -0.2652
     27 C          67.7782   93.8507   15.4004 C.ar    1  UNL1        0.1595
     28 N          67.5384   94.5473   14.0938 N.ar    1  UNL1       -0.2374
     29 C          66.6316   93.9306   13.0704 C.ar    1  UNL1        0.0970
     30 C          66.3917   94.6273   11.7638 C.ar    1  UNL1        0.0160
     31 C          65.4850   94.0106   10.7404 C.ar    1  UNL1       -0.0242
     32 C          65.2451   94.7072    9.4339 C.3     1  UNL1        0.0307
     33 C          64.8180   92.6971   11.0236 C.ar    1  UNL1       -0.0243
     34 C          63.9112   92.0804   10.0002 C.3     1  UNL1        0.0307
     35 C          65.0579   92.0005   12.3302 C.ar    1  UNL1        0.0142
     36 C          65.9647   92.6172   13.3536 C.ar    1  UNL1        0.0803
     37 C          64.7455   87.4090   14.7610 C.3     1  UNL1        0.0968
     38 N          64.4568   85.9509   14.9625 N.3     1  UNL1       -0.2667
     39 C          65.2551   84.9189   14.2223 C.3     1  UNL1        0.1047
     40 C          64.9664   83.4608   14.4239 C.3     1  UNL1        0.1595
     41 O          63.8794   83.0347   15.3656 O.3     1  UNL1       -0.3508
     42 C          63.0811   84.0666   16.1057 C.3     1  UNL1        0.1595
     43 C          63.3698   85.5247   15.9042 C.3     1  UNL1        0.1047
@<TRIPOS>BOND
     1    14    15    1
     2    15    16   am
     3    16    17    2
     4    16     8    1
     5     8     9   ar
     6     9    10   ar
     7    10    11   ar
     8    11    12   ar
     9    12     2    1
    10     2     3   ar
    11     3     4   ar
    12     4     5   ar
    13     5     1    1
    14     1    37    1
    15    37    38    1
    16    38    39    1
    17    39    40    1
    18    40    41    1
    19    41    42    1
    20    42    43    1
    21     1    19    1
    22    19    20    1
    23    19    21   am
    24    21    22    2
    25    21    23    1
    26    23    24    1
    27    24    25   ar
    28    25    26    2
    29    25    27   ar
    30    27    28   ar
    31    28    29   ar
    32    29    30   ar
    33    30    31   ar
    34    31    32    1
    35    31    33   ar
    36    33    34    1
    37    33    35   ar
    38    35    36   ar
    39     5     6   ar
    40     6     7   ar
    41    12    13   ar
    42    13     8   ar
    43     7     2   ar
    44    43    38    1
    45    36    24   ar
    46    36    29   ar
    47    15    18    1
@<TRIPOS>MOLECULE
*****
 43 47 0 0 0
SMALL
GASTEIGER

@<TRIPOS>ATOM
      1 C          63.9041   90.4027   13.3846 C.3     1  UNL1        0.1139
      2 C          63.6677   85.9113   13.5296 C.ar    1  UNL1       -0.0000
      3 C          63.1470   86.6516   12.3333 C.ar    1  UNL1       -0.0003
      4 C          63.2259   88.1487   12.2850 C.ar    1  UNL1       -0.0026
      5 C          63.8253   88.9056   13.4329 C.ar    1  UNL1       -0.0029
      6 C          64.3459   88.1654   14.6291 C.ar    1  UNL1       -0.0026
      7 C          64.2671   86.6682   14.6775 C.ar    1  UNL1       -0.0003
      8 C          63.5339   82.1233   12.3537 C.ar    1  UNL1        0.0534
      9 C          63.4312   81.4199   13.6746 C.ar    1  UNL1        0.0045
     10 C          63.4073   82.2137   14.9471 C.ar    1  UNL1        0.0001
     11 C          63.4861   83.7109   14.8988 C.ar    1  UNL1        0.0000
     12 C          63.5889   84.4142   13.5779 C.ar    1  UNL1        0.0001
     13 C          63.6128   83.6204   12.3054 C.ar    1  UNL1        0.0045
     14 C          62.9159   79.1929    9.7497 C.3     1  UNL1        0.1109
     15 N          62.8920   79.9867   11.0222 N.am    1  UNL1       -0.2992
     16 C          63.5579   81.3295   11.0812 C.2     1  UNL1        0.2459
     17 O          64.2476   81.8785    9.8676 O.2     1  UNL1       -0.2701
     18 H          62.4393   79.6263   11.8187 H       1  UNL1        0.1498
     19 N          64.6951   91.1460   14.4199 N.am    1  UNL1       -0.2727
     20 C          64.8020   90.6036   15.8143 C.3     1  UNL1        0.1152
     21 C          65.3794   92.4316   14.0607 C.2     1  UNL1        0.2491
     22 O          66.1705   93.1748   15.0961 O.2     1  UNL1       -0.2727
     23 C          65.2726   92.9740   12.6664 C.3     1  UNL1        0.1943
     24 N          66.4737   92.9745   11.7677 N.ar    1  UNL1       -0.2839
     25 C          67.5920   92.0047   12.0100 C.ar    1  UNL1        0.2806
     26 O          67.5094   91.0344   13.1509 O.2     1  UNL1       -0.2652
     27 C          68.7930   92.0052   11.1114 C.ar    1  UNL1        0.1595
     28 N          68.8756   92.9754    9.9704 N.ar    1  UNL1       -0.2374
     29 C          67.7573   93.9452    9.7281 C.ar    1  UNL1        0.0970
     30 C          67.8399   94.9155    8.5872 C.ar    1  UNL1        0.0160
     31 C          66.7216   95.8853    8.3449 C.ar    1  UNL1       -0.0242
     32 C          66.8042   96.8556    7.2040 C.3     1  UNL1        0.0307
     33 C          65.5205   95.8849    9.2436 C.ar    1  UNL1       -0.0243
     34 C          64.4021   96.8546    9.0013 C.3     1  UNL1        0.0307
     35 C          65.4379   94.9146   10.3845 C.ar    1  UNL1        0.0142
     36 C          66.5563   93.9447   10.6268 C.ar    1  UNL1        0.0803
     37 C          63.1918   91.1567   12.3009 C.3     1  UNL1        0.0968
     38 N          62.0700   90.5059   11.5473 N.3     1  UNL1       -0.2667
     39 C          62.2558   90.1227   10.1089 C.3     1  UNL1        0.1047
     40 C          61.1340   89.4718    9.3553 C.3     1  UNL1        0.1595
     41 O          59.8265   89.2042   10.0399 O.3     1  UNL1       -0.3508
     42 C          59.6407   89.5874   11.4782 C.3     1  UNL1        0.1595
     43 C          60.7625   90.2383   12.2318 C.3     1  UNL1        0.1047
@<TRIPOS>BOND
     1    14    15    1
     2    15    16   am
     3    16    17    2
     4    16     8    1
     5     8     9   ar
     6     9    10   ar
     7    10    11   ar
     8    11    12   ar
     9    12     2    1
    10     2     3   ar
    11     3     4   ar
    12     4     5   ar
    13     5     1    1
    14     1    37    1
    15    37    38    1
    16    38    39    1
    17    39    40    1
    18    40    41    1
    19    41    42    1
    20    42    43    1
    21     1    19    1
    22    19    20    1
    23    19    21   am
    24    21    22    2
    25    21    23    1
    26    23    24    1
    27    24    25   ar
    28    25    26    2
    29    25    27   ar
    30    27    28   ar
    31    28    29   ar
    32    29    30   ar
    33    30    31   ar
    34    31    32    1
    35    31    33   ar
    36    33    34    1
    37    33    35   ar
    38    35    36   ar
    39     5     6   ar
    40     6     7   ar
    41    12    13   ar
    42    13     8   ar
    43     7     2   ar
    44    43    38    1
    45    36    24   ar
    46    36    29   ar
    47    15    18    1
@<TRIPOS>MOLECULE
*****
 43 47 0 0 0
SMALL
GASTEIGER

@<TRIPOS>ATOM
      1 C          61.9941   87.3189   10.7317 C.3     1  UNL1        0.1139
      2 C          64.3658   90.7596   12.4011 C.ar    1  UNL1       -0.0000
      3 C          63.8271   90.8284   11.0028 C.ar    1  UNL1       -0.0003
      4 C          63.0365   89.6815   10.4464 C.ar    1  UNL1       -0.0026
      5 C          62.7846   88.4658   11.2881 C.ar    1  UNL1       -0.0029
      6 C          63.3233   88.3970   12.6864 C.ar    1  UNL1       -0.0026
      7 C          64.1139   89.5439   13.2429 C.ar    1  UNL1       -0.0003
      8 C          66.1910   94.2728   12.6754 C.ar    1  UNL1        0.0534
      9 C          66.7375   94.2002   14.0705 C.ar    1  UNL1        0.0045
     10 C          66.4933   92.9807   14.9091 C.ar    1  UNL1        0.0001
     11 C          65.7027   91.8338   14.3526 C.ar    1  UNL1        0.0000
     12 C          65.1563   91.9064   12.9575 C.ar    1  UNL1        0.0001
     13 C          65.4005   93.1259   12.1190 C.ar    1  UNL1        0.0045
     14 C          67.2791   96.5736    9.6303 C.3     1  UNL1        0.1109
     15 N          67.0349   95.3541   10.4689 N.am    1  UNL1       -0.2992
     16 C          66.4352   95.4923   11.8368 C.2     1  UNL1        0.2459
     17 O          66.0796   96.8500   12.3662 O.2     1  UNL1       -0.2701
     18 H          67.2683   94.4630   10.1214 H       1  UNL1        0.1498
     19 N          62.6964   86.0724   10.2812 N.am    1  UNL1       -0.2727
     20 C          62.5962   85.6302    8.8514 C.3     1  UNL1        0.1152
     21 C          63.4990   85.2682   11.2606 C.2     1  UNL1        0.2491
     22 O          64.2014   84.0217   10.8101 O.2     1  UNL1       -0.2727
     23 C          63.5992   85.7105   12.6904 C.3     1  UNL1        0.1943
     24 N          63.2416   84.7616   13.7958 N.ar    1  UNL1       -0.2839
     25 C          63.1296   85.2608   15.2058 C.ar    1  UNL1        0.2806
     26 O          63.3752   86.7089   15.5105 O.2     1  UNL1       -0.2652
     27 C          62.7720   84.3120   16.3111 C.ar    1  UNL1        0.1595
     28 N          62.5264   82.8640   16.0065 N.ar    1  UNL1       -0.2374
     29 C          62.6384   82.3647   14.5964 C.ar    1  UNL1        0.0970
     30 C          62.3929   80.9167   14.2918 C.ar    1  UNL1        0.0160
     31 C          62.5049   80.4175   12.8818 C.ar    1  UNL1       -0.0242
     32 C          62.2593   78.9694   12.5771 C.3     1  UNL1        0.0307
     33 C          62.8625   81.3663   11.7763 C.ar    1  UNL1       -0.0243
     34 C          62.9745   80.8671   10.3663 C.3     1  UNL1        0.0307
     35 C          63.1081   82.8144   12.0810 C.ar    1  UNL1        0.0142
     36 C          62.9960   83.3136   13.4911 C.ar    1  UNL1        0.0803
     37 C          60.5011   87.4185   10.6257 C.3     1  UNL1        0.0968
     38 N          59.8665   87.8192    9.3270 N.3     1  UNL1       -0.2667
     39 C          59.1559   86.7954    8.4921 C.3     1  UNL1        0.1047
     40 C          58.5213   87.1961    7.1934 C.3     1  UNL1        0.1595
     41 O          58.5973   88.6206    6.7295 O.3     1  UNL1       -0.3508
     42 C          59.3079   89.6443    7.5643 C.3     1  UNL1        0.1595
     43 C          59.9425   89.2436    8.8631 C.3     1  UNL1        0.1047
@<TRIPOS>BOND
     1    14    15    1
     2    15    16   am
     3    16    17    2
     4    16     8    1
     5     8     9   ar
     6     9    10   ar
     7    10    11   ar
     8    11    12   ar
     9    12     2    1
    10     2     3   ar
    11     3     4   ar
    12     4     5   ar
    13     5     1    1
    14     1    37    1
    15    37    38    1
    16    38    39    1
    17    39    40    1
    18    40    41    1
    19    41    42    1
    20    42    43    1
    21     1    19    1
    22    19    20    1
    23    19    21   am
    24    21    22    2
    25    21    23    1
    26    23    24    1
    27    24    25   ar
    28    25    26    2
    29    25    27   ar
    30    27    28   ar
    31    28    29   ar
    32    29    30   ar
    33    30    31   ar
    34    31    32    1
    35    31    33   ar
    36    33    34    1
    37    33    35   ar
    38    35    36   ar
    39     5     6   ar
    40     6     7   ar
    41    12    13   ar
    42    13     8   ar
    43     7     2   ar
    44    43    38    1
    45    36    24   ar
    46    36    29   ar
    47    15    18    1
@<TRIPOS>MOLECULE
*****
 43 47 0 0 0
SMALL
GASTEIGER

@<TRIPOS>ATOM
      1 C          62.9370   84.8363   12.3131 C.3     1  UNL1        0.1139
      2 C          64.1791   88.6811   14.2941 C.ar    1  UNL1       -0.0000
      3 C          63.6145   88.7016   12.9045 C.ar    1  UNL1       -0.0003
      4 C          63.2005   87.4200   12.2442 C.ar    1  UNL1       -0.0026
      5 C          63.3510   86.1179   12.9734 C.ar    1  UNL1       -0.0029
      6 C          63.9155   86.0973   14.3629 C.ar    1  UNL1       -0.0026
      7 C          64.3296   87.3789   15.0233 C.ar    1  UNL1       -0.0003
      8 C          66.3284   91.8691   15.2772 C.ar    1  UNL1        0.0534
      9 C          65.4212   92.5260   16.2750 C.ar    1  UNL1        0.0045
     10 C          64.0999   91.9011   16.6125 C.ar    1  UNL1        0.0001
     11 C          63.6859   90.6194   15.9522 C.ar    1  UNL1        0.0000
     12 C          64.5931   89.9627   14.9544 C.ar    1  UNL1        0.0001
     13 C          65.9144   90.5875   14.6169 C.ar    1  UNL1        0.0045
     14 C          69.7136   93.9087   15.6389 C.3     1  UNL1        0.1109
     15 N          68.3923   93.2838   15.9764 N.am    1  UNL1       -0.2992
     16 C          67.6496   92.4940   14.9397 C.2     1  UNL1        0.2459
     17 O          68.2282   92.3290   13.5657 O.2     1  UNL1       -0.2701
     18 H          68.0126   93.3921   16.8782 H       1  UNL1        0.1498
     19 N          63.4266   84.5113   10.9330 N.am    1  UNL1       -0.2727
     20 C          64.8151   83.9793   10.7357 C.3     1  UNL1        0.1152
     21 C          62.5276   84.7184    9.7502 C.2     1  UNL1        0.2491
     22 O          63.0172   84.3935    8.3701 O.2     1  UNL1       -0.2727
     23 C          61.1391   85.2504    9.9475 C.3     1  UNL1        0.1943
     24 N          60.6371   86.3734    9.0889 N.ar    1  UNL1       -0.2839
     25 C          60.4811   86.1750    7.6103 C.ar    1  UNL1        0.2806
     26 O          60.8271   84.8538    6.9902 O.2     1  UNL1       -0.2652
     27 C          59.9791   87.2979    6.7518 C.ar    1  UNL1        0.1595
     28 N          59.6331   88.6192    7.3720 N.ar    1  UNL1       -0.2374
     29 C          59.7891   88.8175    8.8506 C.ar    1  UNL1        0.0970
     30 C          59.4430   90.1388    9.4707 C.ar    1  UNL1        0.0160
     31 C          59.5990   90.3371   10.9493 C.ar    1  UNL1       -0.0242
     32 C          59.2530   91.6584   11.5694 C.3     1  UNL1        0.0307
     33 C          60.1010   89.2142   11.8078 C.ar    1  UNL1       -0.0243
     34 C          60.2569   89.4125   13.2864 C.3     1  UNL1        0.0307
     35 C          60.4470   87.8929   11.1877 C.ar    1  UNL1        0.0142
     36 C          60.2910   87.6946    9.7090 C.ar    1  UNL1        0.0803
     37 C          62.0333   83.8795   13.0329 C.3     1  UNL1        0.0968
     38 N          62.5283   82.5118   13.3994 N.3     1  UNL1       -0.2667
     39 C          61.5752   81.3540   13.4358 C.3     1  UNL1        0.1047
     40 C          62.0703   79.9863   13.8022 C.3     1  UNL1        0.1595
     41 O          63.5184   79.7764   14.1324 O.3     1  UNL1       -0.3508
     42 C          64.4714   80.9341   14.0960 C.3     1  UNL1        0.1595
     43 C          63.9764   82.3018   13.7295 C.3     1  UNL1        0.1047
@<TRIPOS>BOND
     1    14    15    1
     2    15    16   am
     3    16    17    2
     4    16     8    1
     5     8     9   ar
     6     9    10   ar
     7    10    11   ar
     8    11    12   ar
     9    12     2    1
    10     2     3   ar
    11     3     4   ar
    12     4     5   ar
    13     5     1    1
    14     1    37    1
    15    37    38    1
    16    38    39    1
    17    39    40    1
    18    40    41    1
    19    41    42    1
    20    42    43    1
    21     1    19    1
    22    19    20    1
    23    19    21   am
    24    21    22    2
    25    21    23    1
    26    23    24    1
    27    24    25   ar
    28    25    26    2
    29    25    27   ar
    30    27    28   ar
    31    28    29   ar
    32    29    30   ar
    33    30    31   ar
    34    31    32    1
    35    31    33   ar
    36    33    34    1
    37    33    35   ar
    38    35    36   ar
    39     5     6   ar
    40     6     7   ar
    41    12    13   ar
    42    13     8   ar
    43     7     2   ar
    44    43    38    1
    45    36    24   ar
    46    36    29   ar
    47    15    18    1
@<TRIPOS>MOLECULE
*****
 43 47 0 0 0
SMALL
GASTEIGER

@<TRIPOS>ATOM
      1 C          64.0710   90.3439   13.2221 C.3     1  UNL1        0.1139
      2 C          63.5367   85.8819   13.4572 C.ar    1  UNL1       -0.0000
      3 C          64.2386   86.6126   14.5634 C.ar    1  UNL1       -0.0003
      4 C          64.4166   88.0999   14.4850 C.ar    1  UNL1       -0.0026
      5 C          63.8929   88.8566   13.3005 C.ar    1  UNL1       -0.0029
      6 C          63.1910   88.1260   12.1944 C.ar    1  UNL1       -0.0026
      7 C          63.0129   86.6386   12.2727 C.ar    1  UNL1       -0.0003
      8 C          63.3069   82.0705   12.3755 C.ar    1  UNL1        0.0534
      9 C          63.0024   81.4199   13.6924 C.ar    1  UNL1        0.0045
     10 C          62.8760   82.2568   14.9309 C.ar    1  UNL1        0.0001
     11 C          63.0541   83.7441   14.8525 C.ar    1  UNL1        0.0000
     12 C          63.3586   84.3946   13.5356 C.ar    1  UNL1        0.0001
     13 C          63.4850   83.5578   12.2972 C.ar    1  UNL1        0.0045
     14 C          62.8486   79.0792    9.8080 C.3     1  UNL1        0.1109
     15 N          62.7222   79.9160   11.0465 N.am    1  UNL1       -0.2992
     16 C          63.4332   81.2337   11.1371 C.2     1  UNL1        0.2459
     17 O          64.2706   81.7145    9.9892 O.2     1  UNL1       -0.2701
     18 H          62.1726   79.6004   11.7999 H       1  UNL1        0.1498
     19 N          64.0912   91.0275   11.8871 N.am    1  UNL1       -0.2727
     20 C          65.0580   92.1455   11.6316 C.3     1  UNL1        0.1152
     21 C          63.1445   90.5931   10.8076 C.2     1  UNL1        0.2491
     22 O          63.1647   91.2767    9.4726 O.2     1  UNL1       -0.2727
     23 C          62.1777   89.4751   11.0632 C.3     1  UNL1        0.1943
     24 N          61.1014   89.1711   10.0635 N.ar    1  UNL1       -0.2839
     25 C          59.9306   90.0972    9.9170 C.ar    1  UNL1        0.2806
     26 O          59.8361   91.3274   10.7700 O.2     1  UNL1       -0.2652
     27 C          58.8544   89.7931    8.9173 C.ar    1  UNL1        0.1595
     28 N          58.9490   88.5629    8.0643 N.ar    1  UNL1       -0.2374
     29 C          60.1198   87.6368    8.2109 C.ar    1  UNL1        0.0970
     30 C          60.2143   86.4066    7.3579 C.ar    1  UNL1        0.0160
     31 C          61.3851   85.4805    7.5045 C.ar    1  UNL1       -0.0242
     32 C          61.4797   84.2503    6.6515 C.3     1  UNL1        0.0307
     33 C          62.4614   85.7845    8.5041 C.ar    1  UNL1       -0.0243
     34 C          63.6322   84.8584    8.6507 C.3     1  UNL1        0.0307
     35 C          62.3668   87.0147    9.3572 C.ar    1  UNL1        0.0142
     36 C          61.1960   87.9409    9.2105 C.ar    1  UNL1        0.0803
     37 C          64.2288   91.1476   14.4788 C.3     1  UNL1        0.0968
     38 N          65.5844   91.6442   14.8861 N.3     1  UNL1       -0.2667
     39 C          66.7822   91.3359   14.0375 C.3     1  UNL1        0.1047
     40 C          68.1378   91.8325   14.4448 C.3     1  UNL1        0.1595
     41 O          68.2955   92.6373   15.7008 O.3     1  UNL1       -0.3508
     42 C          67.0976   92.9456   16.5494 C.3     1  UNL1        0.1595
     43 C          65.7421   92.4490   16.1420 C.3     1  UNL1        0.1047
@<TRIPOS>BOND
     1    14    15    1
     2    15    16   am
     3    16    17    2
     4    16     8    1
     5     8     9   ar
     6     9    10   ar
     7    10    11   ar
     8    11    12   ar
     9    12     2    1
    10     2     3   ar
    11     3     4   ar
    12     4     5   ar
    13     5     1    1
    14     1    37    1
    15    37    38    1
    16    38    39    1
    17    39    40    1
    18    40    41    1
    19    41    42    1
    20    42    43    1
    21     1    19    1
    22    19    20    1
    23    19    21   am
    24    21    22    2
    25    21    23    1
    26    23    24    1
    27    24    25   ar
    28    25    26    2
    29    25    27   ar
    30    27    28   ar
    31    28    29   ar
    32    29    30   ar
    33    30    31   ar
    34    31    32    1
    35    31    33   ar
    36    33    34    1
    37    33    35   ar
    38    35    36   ar
    39     5     6   ar
    40     6     7   ar
    41    12    13   ar
    42    13     8   ar
    43     7     2   ar
    44    43    38    1
    45    36    24   ar
    46    36    29   ar
    47    15    18    1
@<TRIPOS>MOLECULE
*****
 43 47 0 0 0
SMALL
GASTEIGER

@<TRIPOS>ATOM
      1 C          61.8345   87.1444   10.3735 C.3     1  UNL1        0.1139
      2 C          64.1769   90.5623   12.1289 C.ar    1  UNL1       -0.0000
      3 C          63.9212   89.3305   12.9458 C.ar    1  UNL1       -0.0003
      4 C          63.1403   88.1912   12.3607 C.ar    1  UNL1       -0.0026
      5 C          62.6153   88.2837   10.9586 C.ar    1  UNL1       -0.0029
      6 C          62.8710   89.5154   10.1417 C.ar    1  UNL1       -0.0026
      7 C          63.6519   90.6547   10.7268 C.ar    1  UNL1       -0.0003
      8 C          66.0678   94.0362   12.4549 C.ar    1  UNL1        0.0534
      9 C          66.5194   93.9801   13.8843 C.ar    1  UNL1        0.0045
     10 C          66.1901   92.7847   14.7284 C.ar    1  UNL1        0.0001
     11 C          65.4093   91.6454   14.1432 C.ar    1  UNL1        0.0000
     12 C          64.9577   91.7015   12.7140 C.ar    1  UNL1        0.0001
     13 C          65.2870   92.8969   11.8698 C.ar    1  UNL1        0.0045
     14 C          67.4307   96.2475    9.4545 C.3     1  UNL1        0.1109
     15 N          67.1015   95.0521   10.2986 N.am    1  UNL1       -0.2992
     16 C          66.3970   95.2316   11.6107 C.2     1  UNL1        0.2459
     17 O          66.0218   96.6064   12.0786 O.2     1  UNL1       -0.2701
     18 H          67.3477   94.1497    9.9915 H       1  UNL1        0.1498
     19 N          62.5411   85.8923    9.9458 N.am    1  UNL1       -0.2727
     20 C          62.4093   85.4015    8.5346 C.3     1  UNL1        0.1152
     21 C          63.3795   85.1310   10.9295 C.2     1  UNL1        0.2491
     22 O          64.0861   83.8789   10.5018 O.2     1  UNL1       -0.2727
     23 C          63.5113   85.6218   12.3408 C.3     1  UNL1        0.1943
     24 N          63.0980   84.7414   13.4828 N.ar    1  UNL1       -0.2839
     25 C          62.7939   83.2926   13.2409 C.ar    1  UNL1        0.2806
     26 O          62.9032   82.7241   11.8571 O.2     1  UNL1       -0.2652
     27 C          62.3806   82.4122   14.3829 C.ar    1  UNL1        0.1595
     28 N          62.2713   82.9807   15.7667 N.ar    1  UNL1       -0.2374
     29 C          62.5754   84.4295   16.0085 C.ar    1  UNL1        0.0970
     30 C          62.4661   84.9979   17.3923 C.ar    1  UNL1        0.0160
     31 C          62.7701   86.4467   17.6342 C.ar    1  UNL1       -0.0242
     32 C          62.6608   87.0151   19.0180 C.3     1  UNL1        0.0307
     33 C          63.1834   87.3271   16.4922 C.ar    1  UNL1       -0.0243
     34 C          63.4875   88.7759   16.7341 C.3     1  UNL1        0.0307
     35 C          63.2927   86.7587   15.1084 C.ar    1  UNL1        0.0142
     36 C          62.9887   85.3098   14.8666 C.ar    1  UNL1        0.0803
     37 C          60.3470   87.2573   10.2161 C.3     1  UNL1        0.0968
     38 N          59.7676   87.8360    8.9593 N.3     1  UNL1       -0.2667
     39 C          59.0044   86.9585    8.0119 C.3     1  UNL1        0.1047
     40 C          58.4250   87.5373    6.7552 C.3     1  UNL1        0.1595
     41 O          58.6089   88.9936    6.4459 O.3     1  UNL1       -0.3508
     42 C          59.3720   89.8710    7.3934 C.3     1  UNL1        0.1595
     43 C          59.9514   89.2922    8.6501 C.3     1  UNL1        0.1047
@<TRIPOS>BOND
     1    14    15    1
     2    15    16   am
     3    16    17    2
     4    16     8    1
     5     8     9   ar
     6     9    10   ar
     7    10    11   ar
     8    11    12   ar
     9    12     2    1
    10     2     3   ar
    11     3     4   ar
    12     4     5   ar
    13     5     1    1
    14     1    37    1
    15    37    38    1
    16    38    39    1
    17    39    40    1
    18    40    41    1
    19    41    42    1
    20    42    43    1
    21     1    19    1
    22    19    20    1
    23    19    21   am
    24    21    22    2
    25    21    23    1
    26    23    24    1
    27    24    25   ar
    28    25    26    2
    29    25    27   ar
    30    27    28   ar
    31    28    29   ar
    32    29    30   ar
    33    30    31   ar
    34    31    32    1
    35    31    33   ar
    36    33    34    1
    37    33    35   ar
    38    35    36   ar
    39     5     6   ar
    40     6     7   ar
    41    12    13   ar
    42    13     8   ar
    43     7     2   ar
    44    43    38    1
    45    36    24   ar
    46    36    29   ar
    47    15    18    1
@<TRIPOS>MOLECULE
*****
 43 47 0 0 0
SMALL
GASTEIGER

@<TRIPOS>ATOM
      1 C          61.7441   86.0503    9.6977 C.3     1  UNL1        0.1139
      2 C          59.8285   89.0521    6.9463 C.ar    1  UNL1       -0.0000
      3 C          60.7668   89.5126    8.0223 C.ar    1  UNL1       -0.0003
      4 C          61.4053   88.5121    8.9394 C.ar    1  UNL1       -0.0026
      5 C          61.1056   87.0509    8.7806 C.ar    1  UNL1       -0.0029
      6 C          60.1674   86.5903    7.7047 C.ar    1  UNL1       -0.0026
      7 C          59.5288   87.5909    6.7875 C.ar    1  UNL1       -0.0003
      8 C          59.4056   91.9090    4.2244 C.ar    1  UNL1        0.0534
      9 C          57.9129   92.0538    4.1950 C.ar    1  UNL1        0.0045
     10 C          57.0587   91.1980    5.0827 C.ar    1  UNL1        0.0001
     11 C          57.6973   90.1974    5.9998 C.ar    1  UNL1        0.0000
     12 C          59.1900   90.0526    6.0292 C.ar    1  UNL1        0.0001
     13 C          60.0442   90.9084    5.1415 C.ar    1  UNL1        0.0045
     14 C          62.4540   93.1242    1.9926 C.3     1  UNL1        0.1109
     15 N          61.5998   92.2685    2.8803 N.am    1  UNL1       -0.2992
     16 C          60.2598   92.7647    3.3367 C.2     1  UNL1        0.2459
     17 O          59.7740   94.1167    2.9053 O.2     1  UNL1       -0.2701
     18 H          61.9187   91.3811    3.1635 H       1  UNL1        0.1498
     19 N          62.4898   84.8800    9.1283 N.am    1  UNL1       -0.2727
     20 C          62.2102   84.4220    7.7276 C.3     1  UNL1        0.1152
     21 C          63.5152   84.1676    9.9598 C.2     1  UNL1        0.2491
     22 O          64.2609   82.9973    9.3904 O.2     1  UNL1       -0.2727
     23 C          63.7948   84.6256   11.3605 C.3     1  UNL1        0.1943
     24 N          63.2283   83.8678   12.5245 N.ar    1  UNL1       -0.2839
     25 C          62.7209   82.4693   12.3336 C.ar    1  UNL1        0.2806
     26 O          62.7799   81.8284   10.9787 O.2     1  UNL1       -0.2652
     27 C          62.1544   81.7116   13.4976 C.ar    1  UNL1        0.1595
     28 N          62.0954   82.3525   14.8525 N.ar    1  UNL1       -0.2374
     29 C          62.6028   83.7510   15.0434 C.ar    1  UNL1        0.0970
     30 C          62.5438   84.3919   16.3984 C.ar    1  UNL1        0.0160
     31 C          63.0513   85.7905   16.5893 C.ar    1  UNL1       -0.0242
     32 C          62.9923   86.4313   17.9442 C.3     1  UNL1        0.0307
     33 C          63.6178   86.5482   15.4252 C.ar    1  UNL1       -0.0243
     34 C          64.1252   87.9468   15.6161 C.3     1  UNL1        0.0307
     35 C          63.6768   85.9074   14.0703 C.ar    1  UNL1        0.0142
     36 C          63.1693   84.5087   13.8794 C.ar    1  UNL1        0.0803
     37 C          61.6369   86.2201   11.1843 C.3     1  UNL1        0.0968
     38 N          61.5366   87.5944   11.7769 N.3     1  UNL1       -0.2667
     39 C          60.1905   88.2109   12.0177 C.3     1  UNL1        0.1047
     40 C          60.0902   89.5853   12.6103 C.3     1  UNL1        0.1595
     41 O          61.3361   90.3431   12.9621 O.3     1  UNL1       -0.3508
     42 C          62.6821   89.7265   12.7213 C.3     1  UNL1        0.1595
     43 C          62.7824   88.3522   12.1287 C.3     1  UNL1        0.1047
@<TRIPOS>BOND
     1    14    15    1
     2    15    16   am
     3    16    17    2
     4    16     8    1
     5     8     9   ar
     6     9    10   ar
     7    10    11   ar
     8    11    12   ar
     9    12     2    1
    10     2     3   ar
    11     3     4   ar
    12     4     5   ar
    13     5     1    1
    14     1    37    1
    15    37    38    1
    16    38    39    1
    17    39    40    1
    18    40    41    1
    19    41    42    1
    20    42    43    1
    21     1    19    1
    22    19    20    1
    23    19    21   am
    24    21    22    2
    25    21    23    1
    26    23    24    1
    27    24    25   ar
    28    25    26    2
    29    25    27   ar
    30    27    28   ar
    31    28    29   ar
    32    29    30   ar
    33    30    31   ar
    34    31    32    1
    35    31    33   ar
    36    33    34    1
    37    33    35   ar
    38    35    36   ar
    39     5     6   ar
    40     6     7   ar
    41    12    13   ar
    42    13     8   ar
    43     7     2   ar
    44    43    38    1
    45    36    24   ar
    46    36    29   ar
    47    15    18    1
