@<TRIPOS>MOLECULE
*****
 31 33 0 0 0
SMALL
GASTEIGER

@<TRIPOS>ATOM
      1 C          63.9251   89.0148   14.5269 C.2     1  UNL1        0.2618
      2 O          62.6260   89.7588   14.6208 O.2     1  UNL1       -0.2686
      3 N          65.2172   89.7707   14.4323 N.am    1  UNL1       -0.2946
      4 H          66.0698   89.2824   14.3707 H       1  UNL1        0.1501
      5 C          63.7646   85.2054   13.8000 C.ar    1  UNL1        0.0568
      6 C          64.1205   85.2077   15.2572 C.ar    1  UNL1        0.0186
      7 C          64.2239   86.6350   15.7069 C.ar    1  UNL1        0.0231
      8 C          63.9320   87.5148   14.5276 C.ar    1  UNL1        0.1107
      9 N          63.6481   86.6313   13.3491 N.ar    1  UNL1       -0.3496
     10 H          63.4245   86.9341   12.4394 H       1  UNL1        0.1661
     11 C          62.9501   80.3460   10.3762 C.3     1  UNL1        0.0334
     12 C          63.1537   81.5608   11.2322 C.ar    1  UNL1        0.0056
     13 C          63.9656   82.7127   10.7185 C.ar    1  UNL1       -0.0020
     14 C          64.1693   83.9276   11.5744 C.ar    1  UNL1        0.0012
     15 C          63.5610   83.9905   12.9441 C.ar    1  UNL1        0.0178
     16 C          62.7491   82.8387   13.4578 C.ar    1  UNL1        0.0307
     17 C          62.5454   81.6238   12.6018 C.ar    1  UNL1        0.1362
     18 F          61.7335   80.4719   13.1156 F       1  UNL1       -0.2045
     19 C          65.2103   91.2706   14.4316 C.3     1  UNL1        0.1341
     20 C          65.3140   92.0205   13.1367 C.ar    1  UNL1        0.1072
     21 N          64.5747   91.7013   11.8712 N.ar    1  UNL1       -0.2397
     22 C          64.9791   92.7048   10.8323 C.ar    1  UNL1        0.1037
     23 C          65.9684   93.6444   11.4557 C.ar    1  UNL1        0.0568
     24 S          66.1754   93.2215   12.8798 S.2     1  UNL1       -0.0710
     25 C          66.6339   94.8033   10.7745 C.3     1  UNL1        0.1717
     26 O          67.8647   94.5806    9.9466 O.3     1  UNL1       -0.3767
     27 H          68.5915   94.2899   10.5194 H       1  UNL1        0.2109
     28 C          65.0995   92.0207   15.7259 C.3     1  UNL1        0.0917
     29 N          63.8078   92.0139   16.4885 N.3     1  UNL1       -0.3194
     30 H          63.0914   92.4990   15.9483 H       1  UNL1        0.1189
     31 H          63.9383   92.4873   17.3825 H       1  UNL1        0.1189
@<TRIPOS>BOND
     1    11    12    1
     2    12    13   ar
     3    13    14   ar
     4    14    15   ar
     5    15     5    1
     6     5     6   ar
     7     6     7   ar
     8     7     8   ar
     9     8     1    1
    10     1     2    2
    11     1     3   am
    12     3    19    1
    13    19    28    1
    14    28    29    1
    15    19    20    1
    16    20    21   ar
    17    21    22   ar
    18    22    23   ar
    19    23    25    1
    20    25    26    1
    21    23    24   ar
    22     8     9   ar
    23    15    16   ar
    24    16    17   ar
    25    17    18    1
    26    17    12   ar
    27     9     5   ar
    28    24    20   ar
    29     3     4    1
    30    29    30    1
    31    29    31    1
    32    26    27    1
    33     9    10    1
@<TRIPOS>MOLECULE
*****
 31 33 0 0 0
SMALL
GASTEIGER

@<TRIPOS>ATOM
      1 C          63.5715   89.9943   12.7196 C.2     1  UNL1        0.2618
      2 O          62.8177   91.2217   12.3012 O.2     1  UNL1       -0.2686
      3 N          64.7561   90.1161   13.6316 N.am    1  UNL1       -0.2946
      4 H          65.2509   89.3105   13.9062 H       1  UNL1        0.1501
      5 C          62.7795   86.2497   12.0744 C.ar    1  UNL1        0.0568
      6 C          62.1758   86.8874   10.8583 C.ar    1  UNL1        0.0186
      7 C          62.3990   88.3677   10.9519 C.ar    1  UNL1        0.0231
      8 C          63.1407   88.6450   12.2259 C.ar    1  UNL1        0.1107
      9 N          63.3758   87.3359   12.9196 N.ar    1  UNL1       -0.3496
     10 H          63.8400   87.2116   13.7789 H       1  UNL1        0.1661
     11 C          62.8046   80.3839   13.3362 C.3     1  UNL1        0.0334
     12 C          62.7983   81.8504   13.0208 C.ar    1  UNL1        0.0056
     13 C          62.6187   82.8535   14.1214 C.ar    1  UNL1       -0.0020
     14 C          62.6124   84.3200   13.8059 C.ar    1  UNL1        0.0012
     15 C          62.7858   84.7832   12.3898 C.ar    1  UNL1        0.0178
     16 C          62.9654   83.7801   11.2892 C.ar    1  UNL1        0.0307
     17 C          62.9717   82.3136   11.6047 C.ar    1  UNL1        0.1362
     18 F          63.1513   81.3105   10.5040 F       1  UNL1       -0.2045
     19 C          65.1869   91.4654   14.1252 C.3     1  UNL1        0.1341
     20 C          65.7191   92.4825   13.1597 C.ar    1  UNL1        0.1072
     21 N          65.8643   93.9528   13.4187 N.ar    1  UNL1       -0.2397
     22 C          66.4345   94.5868   12.1847 C.ar    1  UNL1        0.1037
     23 C          66.6417   93.5084   11.1629 C.ar    1  UNL1        0.0568
     24 S          66.1996   92.2078   11.7655 S.2     1  UNL1       -0.0710
     25 C          67.1941   93.6973    9.7812 C.3     1  UNL1        0.1717
     26 O          68.6652   93.9150    9.5849 O.3     1  UNL1       -0.3767
     27 H          68.9221   94.7630    9.9797 H       1  UNL1        0.2109
     28 C          65.0855   91.7977   15.5845 C.3     1  UNL1        0.0917
     29 N          63.7604   91.7136   16.2825 N.3     1  UNL1       -0.3194
     30 H          63.1305   92.4200   15.9024 H       1  UNL1        0.1189
     31 H          63.8911   91.8764   17.2809 H       1  UNL1        0.1189
@<TRIPOS>BOND
     1    11    12    1
     2    12    13   ar
     3    13    14   ar
     4    14    15   ar
     5    15     5    1
     6     5     6   ar
     7     6     7   ar
     8     7     8   ar
     9     8     1    1
    10     1     2    2
    11     1     3   am
    12     3    19    1
    13    19    28    1
    14    28    29    1
    15    19    20    1
    16    20    21   ar
    17    21    22   ar
    18    22    23   ar
    19    23    25    1
    20    25    26    1
    21    23    24   ar
    22     8     9   ar
    23    15    16   ar
    24    16    17   ar
    25    17    18    1
    26    17    12   ar
    27     9     5   ar
    28    24    20   ar
    29     3     4    1
    30    29    30    1
    31    29    31    1
    32    26    27    1
    33     9    10    1
@<TRIPOS>MOLECULE
*****
 31 33 0 0 0
SMALL
GASTEIGER

@<TRIPOS>ATOM
      1 C          63.4381   89.9557   12.6825 C.2     1  UNL1        0.2618
      2 O          62.6284   91.1824   12.3833 O.2     1  UNL1       -0.2686
      3 N          64.6565   90.0549   13.5518 N.am    1  UNL1       -0.2946
      4 H          65.1880   89.2498   13.7482 H       1  UNL1        0.1501
      5 C          62.7017   86.2419   11.8276 C.ar    1  UNL1        0.0568
      6 C          62.0993   86.9371   10.6428 C.ar    1  UNL1        0.0186
      7 C          62.3018   88.4129   10.8188 C.ar    1  UNL1        0.0231
      8 C          63.0294   88.6299   12.1124 C.ar    1  UNL1        0.1107
      9 N          63.2765   87.2882   12.7359 N.ar    1  UNL1       -0.3496
     10 H          63.7355   87.1232   13.5911 H       1  UNL1        0.1661
     11 C          62.7955   80.3169   12.7687 C.3     1  UNL1        0.0334
     12 C          62.7721   81.7982   12.5334 C.ar    1  UNL1        0.0056
     13 C          63.1189   82.3485   11.1818 C.ar    1  UNL1       -0.0020
     14 C          63.0955   83.8298   10.9466 C.ar    1  UNL1        0.0012
     15 C          62.7251   84.7607   12.0629 C.ar    1  UNL1        0.0178
     16 C          62.3783   84.2104   13.4145 C.ar    1  UNL1        0.0307
     17 C          62.4017   82.7291   13.6497 C.ar    1  UNL1        0.1362
     18 F          62.0548   82.1788   15.0014 F       1  UNL1       -0.2045
     19 C          65.0652   91.3808   14.1218 C.3     1  UNL1        0.1341
     20 C          65.6040   92.4511   13.2196 C.ar    1  UNL1        0.1072
     21 N          65.9335   93.8586   13.6202 N.ar    1  UNL1       -0.2397
     22 C          66.4411   94.5792   12.4065 C.ar    1  UNL1        0.1037
     23 C          66.4254   93.6171   11.2558 C.ar    1  UNL1        0.0568
     24 S          65.9081   92.3019   11.7583 S.2     1  UNL1       -0.0710
     25 C          66.8522   93.9175    9.8495 C.3     1  UNL1        0.1717
     26 O          68.2945   94.1973    9.5470 O.3     1  UNL1       -0.3767
     27 H          68.5605   95.0248    9.9776 H       1  UNL1        0.2109
     28 C          64.9349   91.6364   15.5941 C.3     1  UNL1        0.0917
     29 N          63.5773   91.8103   16.2080 N.3     1  UNL1       -0.3194
     30 H          63.1482   92.6628   15.8481 H       1  UNL1        0.1189
     31 H          63.6685   91.8773   17.2217 H       1  UNL1        0.1189
@<TRIPOS>BOND
     1    11    12    1
     2    12    13   ar
     3    13    14   ar
     4    14    15   ar
     5    15     5    1
     6     5     6   ar
     7     6     7   ar
     8     7     8   ar
     9     8     1    1
    10     1     2    2
    11     1     3   am
    12     3    19    1
    13    19    28    1
    14    28    29    1
    15    19    20    1
    16    20    21   ar
    17    21    22   ar
    18    22    23   ar
    19    23    25    1
    20    25    26    1
    21    23    24   ar
    22     8     9   ar
    23    15    16   ar
    24    16    17   ar
    25    17    18    1
    26    17    12   ar
    27     9     5   ar
    28    24    20   ar
    29     3     4    1
    30    29    30    1
    31    29    31    1
    32    26    27    1
    33     9    10    1
@<TRIPOS>MOLECULE
*****
 31 33 0 0 0
SMALL
GASTEIGER

@<TRIPOS>ATOM
      1 C          63.9365   89.3630   15.0158 C.2     1  UNL1        0.2618
      2 O          62.5343   89.5473   15.5157 O.2     1  UNL1       -0.2686
      3 N          64.5457   87.9928   14.9794 N.am    1  UNL1       -0.2946
      4 H          65.4661   87.8719   14.6513 H       1  UNL1        0.1501
      5 C          65.8002   92.1952   13.1262 C.ar    1  UNL1        0.0568
      6 C          66.0988   92.5528   14.5520 C.ar    1  UNL1        0.0186
      7 C          65.4370   91.5354   15.4334 C.ar    1  UNL1        0.0231
      8 C          64.7293   90.5490   14.5523 C.ar    1  UNL1        0.1107
      9 N          64.9538   90.9568   13.1264 N.ar    1  UNL1       -0.3496
     10 H          64.6066   90.4931   12.3304 H       1  UNL1        0.1661
     11 C          67.6639   95.1924    8.2740 C.3     1  UNL1        0.0334
     12 C          67.1980   94.4431    9.4871 C.ar    1  UNL1        0.0056
     13 C          66.3763   95.1410   10.5299 C.ar    1  UNL1       -0.0020
     14 C          65.9103   94.3917   11.7430 C.ar    1  UNL1        0.0012
     15 C          66.2661   92.9445   11.9131 C.ar    1  UNL1        0.0178
     16 C          67.0878   92.2466   10.8702 C.ar    1  UNL1        0.0307
     17 C          67.5538   92.9959    9.6572 C.ar    1  UNL1        0.1362
     18 F          68.3755   92.2979    8.6143 F       1  UNL1       -0.2045
     19 C          63.7528   86.8069   15.4428 C.3     1  UNL1        0.1341
     20 C          63.4456   85.6909   14.4889 C.ar    1  UNL1        0.1072
     21 N          63.2913   85.8189   13.0024 N.ar    1  UNL1       -0.2397
     22 C          62.9892   84.4579   12.4488 C.ar    1  UNL1        0.1037
     23 C          62.9567   83.4887   13.5931 C.ar    1  UNL1        0.0568
     24 S          63.2388   84.2507   14.8540 S.2     1  UNL1       -0.0710
     25 C          62.6891   82.0161   13.4941 C.3     1  UNL1        0.1717
     26 O          62.1937   81.2616   14.6921 O.3     1  UNL1       -0.3767
     27 H          62.8802   81.2561   15.3774 H       1  UNL1        0.2109
     28 C          63.2670   86.7371   16.8603 C.3     1  UNL1        0.0917
     29 N          61.7971   86.7985   17.1532 N.3     1  UNL1       -0.3194
     30 H          61.4369   87.7169   16.8943 H       1  UNL1        0.1189
     31 H          61.6420   86.6407   18.1489 H       1  UNL1        0.1189
@<TRIPOS>BOND
     1    11    12    1
     2    12    13   ar
     3    13    14   ar
     4    14    15   ar
     5    15     5    1
     6     5     6   ar
     7     6     7   ar
     8     7     8   ar
     9     8     1    1
    10     1     2    2
    11     1     3   am
    12     3    19    1
    13    19    28    1
    14    28    29    1
    15    19    20    1
    16    20    21   ar
    17    21    22   ar
    18    22    23   ar
    19    23    25    1
    20    25    26    1
    21    23    24   ar
    22     8     9   ar
    23    15    16   ar
    24    16    17   ar
    25    17    18    1
    26    17    12   ar
    27     9     5   ar
    28    24    20   ar
    29     3     4    1
    30    29    30    1
    31    29    31    1
    32    26    27    1
    33     9    10    1
@<TRIPOS>MOLECULE
*****
 31 33 0 0 0
SMALL
GASTEIGER

@<TRIPOS>ATOM
      1 C          63.5012   88.9535   13.3537 C.2     1  UNL1        0.2618
      2 O          63.0427   89.9587   14.3683 O.2     1  UNL1       -0.2686
      3 N          63.6818   89.3620   11.9218 N.am    1  UNL1       -0.2946
      4 H          63.9828   88.7023   11.2559 H       1  UNL1        0.1501
      5 C          63.7527   85.1150   13.8711 C.ar    1  UNL1        0.0568
      6 C          64.6607   85.6138   14.9558 C.ar    1  UNL1        0.0186
      7 C          64.6771   87.1124   14.8941 C.ar    1  UNL1        0.0231
      8 C          63.7791   87.5398   13.7712 C.ar    1  UNL1        0.1107
      9 N          63.2078   86.3053   13.1390 N.ar    1  UNL1       -0.3496
     10 H          62.5846   86.2807   12.3772 H       1  UNL1        0.1661
     11 C          62.5169   79.3674   12.6715 C.3     1  UNL1        0.0334
     12 C          62.8259   80.8043   12.9714 C.ar    1  UNL1        0.0056
     13 C          64.0049   81.4688   12.3246 C.ar    1  UNL1       -0.0020
     14 C          64.3138   82.9056   12.6245 C.ar    1  UNL1        0.0012
     15 C          63.4437   83.6781   13.5712 C.ar    1  UNL1        0.0178
     16 C          62.2647   83.0136   14.2180 C.ar    1  UNL1        0.0307
     17 C          61.9558   81.5767   13.9181 C.ar    1  UNL1        0.1362
     18 F          60.7767   80.9123   14.5650 F       1  UNL1       -0.2045
     19 C          63.4039   90.7757   11.5044 C.3     1  UNL1        0.1341
     20 C          64.4439   91.8367   11.7104 C.ar    1  UNL1        0.1072
     21 N          65.0238   92.2590   13.0278 N.ar    1  UNL1       -0.2397
     22 C          66.0249   93.3451   12.7668 C.ar    1  UNL1        0.1037
     23 C          66.0638   93.5942   11.2882 C.ar    1  UNL1        0.0568
     24 S          65.0867   92.6620   10.6353 S.2     1  UNL1       -0.0710
     25 C          66.9280   94.5990   10.5857 C.3     1  UNL1        0.1717
     26 O          68.0871   94.1389    9.7522 O.3     1  UNL1       -0.3767
     27 H          68.7521   93.7244   10.3239 H       1  UNL1        0.2109
     28 C          62.0859   91.1283   10.8810 C.3     1  UNL1        0.0917
     29 N          60.8072   90.6961   11.5354 N.3     1  UNL1       -0.3194
     30 H          60.7403   89.6786   11.5121 H       1  UNL1        0.1189
     31 H          60.0156   91.1005   11.0351 H       1  UNL1        0.1189
@<TRIPOS>BOND
     1    11    12    1
     2    12    13   ar
     3    13    14   ar
     4    14    15   ar
     5    15     5    1
     6     5     6   ar
     7     6     7   ar
     8     7     8   ar
     9     8     1    1
    10     1     2    2
    11     1     3   am
    12     3    19    1
    13    19    28    1
    14    28    29    1
    15    19    20    1
    16    20    21   ar
    17    21    22   ar
    18    22    23   ar
    19    23    25    1
    20    25    26    1
    21    23    24   ar
    22     8     9   ar
    23    15    16   ar
    24    16    17   ar
    25    17    18    1
    26    17    12   ar
    27     9     5   ar
    28    24    20   ar
    29     3     4    1
    30    29    30    1
    31    29    31    1
    32    26    27    1
    33     9    10    1
@<TRIPOS>MOLECULE
*****
 31 33 0 0 0
SMALL
GASTEIGER

@<TRIPOS>ATOM
      1 C          63.7577   88.1702   13.9948 C.2     1  UNL1        0.2618
      2 O          63.4128   88.8557   15.2837 O.2     1  UNL1       -0.2686
      3 N          63.8772   88.9674   12.7299 N.am    1  UNL1       -0.2946
      4 H          64.1035   88.5175   11.8839 H       1  UNL1        0.1501
      5 C          63.9399   84.3567   13.2952 C.ar    1  UNL1        0.0568
      6 C          64.7194   84.4545   14.5730 C.ar    1  UNL1        0.0186
      7 C          64.7460   85.8950   14.9906 C.ar    1  UNL1        0.0231
      8 C          63.9830   86.6874   13.9709 C.ar    1  UNL1        0.1107
      9 N          63.4847   85.7367   12.9231 N.ar    1  UNL1       -0.3496
     10 H          62.9524   85.9763   12.1304 H       1  UNL1        0.1661
     11 C          62.8361   79.3282   10.2136 C.3     1  UNL1        0.0334
     12 C          63.1120   80.5853   10.9840 C.ar    1  UNL1        0.0056
     13 C          63.7154   81.7717   10.2923 C.ar    1  UNL1       -0.0020
     14 C          63.9913   83.0288   11.0627 C.ar    1  UNL1        0.0012
     15 C          63.6639   83.0995   12.5248 C.ar    1  UNL1        0.0178
     16 C          63.0606   81.9132   13.2165 C.ar    1  UNL1        0.0307
     17 C          62.7846   80.6561   12.4461 C.ar    1  UNL1        0.1362
     18 F          62.1812   79.4697   13.1378 F       1  UNL1       -0.2045
     19 C          63.6518   90.4502   12.7538 C.3     1  UNL1        0.1341
     20 C          64.7856   91.3759   13.0819 C.ar    1  UNL1        0.1072
     21 N          65.1980   92.5805   12.2890 N.ar    1  UNL1       -0.2397
     22 C          66.3733   93.2087   12.9776 C.ar    1  UNL1        0.1037
     23 C          66.6873   92.3922   14.1961 C.ar    1  UNL1        0.0568
     24 S          65.7061   91.2595   14.2606 S.2     1  UNL1       -0.0710
     25 C          67.7890   92.6612   15.1778 C.3     1  UNL1        0.1717
     26 O          69.1823   92.9240   14.6881 O.3     1  UNL1       -0.3767
     27 H          69.5328   92.1242   14.2658 H       1  UNL1        0.2109
     28 C          62.2927   91.0072   12.4497 C.3     1  UNL1        0.0917
     29 N          61.0934   90.1063   12.4602 N.3     1  UNL1       -0.3194
     30 H          61.1723   89.4263   11.7040 H       1  UNL1        0.1189
     31 H          60.2487   90.6631   12.3299 H       1  UNL1        0.1189
@<TRIPOS>BOND
     1    11    12    1
     2    12    13   ar
     3    13    14   ar
     4    14    15   ar
     5    15     5    1
     6     5     6   ar
     7     6     7   ar
     8     7     8   ar
     9     8     1    1
    10     1     2    2
    11     1     3   am
    12     3    19    1
    13    19    28    1
    14    28    29    1
    15    19    20    1
    16    20    21   ar
    17    21    22   ar
    18    22    23   ar
    19    23    25    1
    20    25    26    1
    21    23    24   ar
    22     8     9   ar
    23    15    16   ar
    24    16    17   ar
    25    17    18    1
    26    17    12   ar
    27     9     5   ar
    28    24    20   ar
    29     3     4    1
    30    29    30    1
    31    29    31    1
    32    26    27    1
    33     9    10    1
@<TRIPOS>MOLECULE
*****
 31 33 0 0 0
SMALL
GASTEIGER

@<TRIPOS>ATOM
      1 C          63.3271   89.3550   12.9864 C.2     1  UNL1        0.2618
      2 O          62.9589   90.6409   12.3076 O.2     1  UNL1       -0.2686
      3 N          64.0169   89.3807   14.3182 N.am    1  UNL1       -0.2946
      4 H          64.2586   88.5367   14.7638 H       1  UNL1        0.1501
      5 C          62.7274   85.6632   11.9490 C.ar    1  UNL1        0.0568
      6 C          62.2946   86.3869   10.7084 C.ar    1  UNL1        0.0186
      7 C          62.4665   87.8579   10.9460 C.ar    1  UNL1        0.0231
      8 C          63.0056   88.0434   12.3335 C.ar    1  UNL1        0.1107
      9 N          63.1668   86.6870   12.9533 N.ar    1  UNL1       -0.3496
     10 H          63.5022   86.5013   13.8601 H       1  UNL1        0.1661
     11 C          62.7047   79.7173   12.7527 C.3     1  UNL1        0.0334
     12 C          62.7104   81.2038   12.5518 C.ar    1  UNL1        0.0056
     13 C          62.4492   82.1184   13.7116 C.ar    1  UNL1       -0.0020
     14 C          62.4549   83.6049   13.5107 C.ar    1  UNL1        0.0012
     15 C          62.7217   84.1767   12.1499 C.ar    1  UNL1        0.0178
     16 C          62.9828   83.2621   10.9901 C.ar    1  UNL1        0.0307
     17 C          62.9772   81.7756   11.1910 C.ar    1  UNL1        0.1362
     18 F          63.2383   80.8610   10.0311 F       1  UNL1       -0.2045
     19 C          64.3383   90.6923   14.9711 C.3     1  UNL1        0.1341
     20 C          65.4998   91.5074   14.4849 C.ar    1  UNL1        0.1072
     21 N          65.4737   92.4930   13.3545 N.ar    1  UNL1       -0.2397
     22 C          66.8492   93.0747   13.2147 C.ar    1  UNL1        0.1037
     23 C          67.7255   92.4487   14.2588 C.ar    1  UNL1        0.0568
     24 S          66.8916   91.4800   15.0438 S.2     1  UNL1       -0.0710
     25 C          69.1803   92.7401   14.4792 C.3     1  UNL1        0.1717
     26 O          69.5918   93.8456   15.4058 O.3     1  UNL1       -0.3767
     27 H          69.3095   94.6976   15.0380 H       1  UNL1        0.2109
     28 C          63.4981   91.1888   16.1102 C.3     1  UNL1        0.0917
     29 N          63.8471   92.4779   16.7933 N.3     1  UNL1       -0.3194
     30 H          64.7420   92.3774   17.2724 H       1  UNL1        0.1189
     31 H          63.1222   92.7100   17.4723 H       1  UNL1        0.1189
@<TRIPOS>BOND
     1    11    12    1
     2    12    13   ar
     3    13    14   ar
     4    14    15   ar
     5    15     5    1
     6     5     6   ar
     7     6     7   ar
     8     7     8   ar
     9     8     1    1
    10     1     2    2
    11     1     3   am
    12     3    19    1
    13    19    28    1
    14    28    29    1
    15    19    20    1
    16    20    21   ar
    17    21    22   ar
    18    22    23   ar
    19    23    25    1
    20    25    26    1
    21    23    24   ar
    22     8     9   ar
    23    15    16   ar
    24    16    17   ar
    25    17    18    1
    26    17    12   ar
    27     9     5   ar
    28    24    20   ar
    29     3     4    1
    30    29    30    1
    31    29    31    1
    32    26    27    1
    33     9    10    1
@<TRIPOS>MOLECULE
*****
 31 33 0 0 0
SMALL
GASTEIGER

@<TRIPOS>ATOM
      1 C          62.9014   89.5845   12.4189 C.2     1  UNL1        0.2618
      2 O          61.6742   89.6589   13.2782 O.2     1  UNL1       -0.2686
      3 N          63.1227   88.3979   11.5283 N.am    1  UNL1       -0.2946
      4 H          63.9281   88.3491   10.9643 H       1  UNL1        0.1501
      5 C          65.3142   92.5564   11.7768 C.ar    1  UNL1        0.0568
      6 C          65.5968   92.2601   13.2198 C.ar    1  UNL1        0.0186
      7 C          64.7274   91.1108   13.6361 C.ar    1  UNL1        0.0231
      8 C          63.9074   90.6967   12.4502 C.ar    1  UNL1        0.1107
      9 N          64.2701   91.5901   11.3012 N.ar    1  UNL1       -0.3496
     10 H          63.8896   91.5495   10.3941 H       1  UNL1        0.1661
     11 C          67.9051   96.8520    8.4852 C.3     1  UNL1        0.0334
     12 C          67.2573   95.7781    9.3081 C.ar    1  UNL1        0.0056
     13 C          66.4943   96.1405   10.5476 C.ar    1  UNL1       -0.0020
     14 C          65.8465   95.0666   11.3705 C.ar    1  UNL1        0.0012
     15 C          65.9619   93.6303   10.9539 C.ar    1  UNL1        0.0178
     16 C          66.7250   93.2679    9.7144 C.ar    1  UNL1        0.0307
     17 C          67.3727   94.3418    8.8916 C.ar    1  UNL1        0.1362
     18 F          68.1358   93.9793    7.6520 F       1  UNL1       -0.2045
     19 C          62.1167   87.2858   11.4971 C.3     1  UNL1        0.1341
     20 C          62.4819   85.9291   12.0222 C.ar    1  UNL1        0.1072
     21 N          63.0881   85.6363   13.3626 N.ar    1  UNL1       -0.2397
     22 C          63.2860   84.1531   13.4679 C.ar    1  UNL1        0.1037
     23 C          62.8021   83.5292   12.1926 C.ar    1  UNL1        0.0568
     24 S          62.3052   84.6268   11.2990 S.2     1  UNL1       -0.0710
     25 C          62.8132   82.0649   11.8677 C.3     1  UNL1        0.1717
     26 O          63.4473   81.0910   12.8162 O.3     1  UNL1       -0.3767
     27 H          64.4023   81.2553   12.8577 H       1  UNL1        0.2109
     28 C          60.7453   87.5305   10.9407 C.3     1  UNL1        0.0917
     29 N          59.6947   88.1784   11.7931 N.3     1  UNL1       -0.3194
     30 H          59.4565   87.5596   12.5682 H       1  UNL1        0.1189
     31 H          58.8621   88.3551   11.2309 H       1  UNL1        0.1189
@<TRIPOS>BOND
     1    11    12    1
     2    12    13   ar
     3    13    14   ar
     4    14    15   ar
     5    15     5    1
     6     5     6   ar
     7     6     7   ar
     8     7     8   ar
     9     8     1    1
    10     1     2    2
    11     1     3   am
    12     3    19    1
    13    19    28    1
    14    28    29    1
    15    19    20    1
    16    20    21   ar
    17    21    22   ar
    18    22    23   ar
    19    23    25    1
    20    25    26    1
    21    23    24   ar
    22     8     9   ar
    23    15    16   ar
    24    16    17   ar
    25    17    18    1
    26    17    12   ar
    27     9     5   ar
    28    24    20   ar
    29     3     4    1
    30    29    30    1
    31    29    31    1
    32    26    27    1
    33     9    10    1
@<TRIPOS>MOLECULE
*****
 31 33 0 0 0
SMALL
GASTEIGER

@<TRIPOS>ATOM
      1 C          63.7020   90.1344   13.4814 C.2     1  UNL1        0.2618
      2 O          63.5478   91.4867   12.8509 O.2     1  UNL1       -0.2686
      3 N          64.2638   90.0126   14.8669 N.am    1  UNL1       -0.2946
      4 H          64.3650   89.1251   15.2808 H       1  UNL1        0.1501
      5 C          62.9199   86.5823   12.1264 C.ar    1  UNL1        0.0568
      6 C          62.4150   87.4387   11.0031 C.ar    1  UNL1        0.0186
      7 C          62.6465   88.8736   11.3740 C.ar    1  UNL1        0.0231
      8 C          63.2945   88.9040   12.7265 C.ar    1  UNL1        0.1107
      9 N          63.4635   87.4879   13.1914 N.ar    1  UNL1       -0.3496
     10 H          63.8613   87.2029   14.0457 H       1  UNL1        0.1661
     11 C          62.7884   80.5870   12.3243 C.3     1  UNL1        0.0334
     12 C          62.8213   82.0858   12.2748 C.ar    1  UNL1        0.0056
     13 C          63.1175   82.7872   10.9825 C.ar    1  UNL1       -0.0020
     14 C          63.1504   84.2861   10.9330 C.ar    1  UNL1        0.0012
     15 C          62.8870   85.0835   12.1758 C.ar    1  UNL1        0.0178
     16 C          62.5908   84.3820   13.4682 C.ar    1  UNL1        0.0307
     17 C          62.5579   82.8832   13.5177 C.ar    1  UNL1        0.1362
     18 F          62.2617   82.1818   14.8101 F       1  UNL1       -0.2045
     19 C          64.6712   91.2430   15.6218 C.3     1  UNL1        0.1341
     20 C          66.0542   91.8002   15.4575 C.ar    1  UNL1        0.1072
     21 N          66.7323   92.7644   16.3851 N.ar    1  UNL1       -0.2397
     22 C          68.0991   93.0510   15.8377 C.ar    1  UNL1        0.1037
     23 C          68.2658   92.2639   14.5718 C.ar    1  UNL1        0.0568
     24 S          67.0020   91.4908   14.3368 S.2     1  UNL1       -0.0710
     25 C          69.4826   92.2520   13.6947 C.3     1  UNL1        0.1717
     26 O          69.4700   91.4863   12.4049 O.3     1  UNL1       -0.3767
     27 H          69.3960   90.5376   12.5928 H       1  UNL1        0.2109
     28 C          63.6957   91.9164   16.5410 C.3     1  UNL1        0.0917
     29 N          64.0887   93.1713   17.2627 N.3     1  UNL1       -0.3194
     30 H          64.8333   92.9621   17.9277 H       1  UNL1        0.1189
     31 H          63.2811   93.5432   17.7625 H       1  UNL1        0.1189
@<TRIPOS>BOND
     1    11    12    1
     2    12    13   ar
     3    13    14   ar
     4    14    15   ar
     5    15     5    1
     6     5     6   ar
     7     6     7   ar
     8     7     8   ar
     9     8     1    1
    10     1     2    2
    11     1     3   am
    12     3    19    1
    13    19    28    1
    14    28    29    1
    15    19    20    1
    16    20    21   ar
    17    21    22   ar
    18    22    23   ar
    19    23    25    1
    20    25    26    1
    21    23    24   ar
    22     8     9   ar
    23    15    16   ar
    24    16    17   ar
    25    17    18    1
    26    17    12   ar
    27     9     5   ar
    28    24    20   ar
    29     3     4    1
    30    29    30    1
    31    29    31    1
    32    26    27    1
    33     9    10    1
