@<TRIPOS>MOLECULE
*****
 37 41 0 0 0
SMALL
GASTEIGER

@<TRIPOS>ATOM
      1 C          62.9725   84.0047   17.1354 C.3     1  UNL1        0.0570
      2 C          62.9606   85.4925   16.9446 C.ar    1  UNL1        0.1145
      3 N          62.3045   86.4923   17.8501 N.ar    1  UNL1       -0.0800
      4 O          62.5411   87.8593   17.2798 O.2     1  UNL1       -0.3524
      5 C          63.3434   87.7044   16.0220 C.ar    1  UNL1        0.1899
      6 C          63.6027   86.2416   15.8148 C.ar    1  UNL1        0.1073
      7 C          63.8054   88.8170   15.1282 C.ar    1  UNL1        0.0385
      8 C          64.5265   89.9964   15.7103 C.ar    1  UNL1        0.0032
      9 C          64.9885   91.1089   14.8166 C.ar    1  UNL1        0.0001
     10 C          64.7293   91.0421   13.3406 C.ar    1  UNL1        0.0000
     11 C          64.0081   89.8627   12.7585 C.ar    1  UNL1        0.0001
     12 C          63.5462   88.7501   13.6523 C.ar    1  UNL1        0.0032
     13 C          65.1912   92.1547   12.4469 C.ar    1  UNL1       -0.0000
     14 C          65.9594   93.3080   13.0209 C.ar    1  UNL1       -0.0003
     15 C          66.4214   94.4206   12.1272 C.ar    1  UNL1       -0.0039
     16 C          66.1151   94.3798   10.6593 C.ar    1  UNL1       -0.0179
     17 C          65.3469   93.2264   10.0853 C.ar    1  UNL1       -0.0039
     18 C          64.8850   92.1138   10.9790 C.ar    1  UNL1       -0.0003
     19 C          66.5770   95.4923    9.7656 C.3     1  UNL1        0.0509
     20 C          66.6760   96.8560    9.1485 C.3     1  UNL1        0.0100
     21 C          65.6923   96.6017   10.2521 C.3     1  UNL1        0.0100
     22 C          67.6222   94.7694    8.9687 C.2     1  UNL1        0.0534
     23 O          67.5768   94.8001    7.4696 O.co2   1  UNL1       -0.5489
     24 O          68.7127   94.0158    9.6707 O.co2   1  UNL1       -0.5489
     25 N          64.3694   85.6345   14.6775 N.am    1  UNL1       -0.2461
     26 C          63.6908   84.6804   13.7399 C.2     1  UNL1        0.4057
     27 O          62.2451   84.3333   13.9397 O.2     1  UNL1       -0.2261
     28 H          65.3182   85.8622   14.5463 H       1  UNL1        0.1583
     29 O          64.4575   84.0733   12.6026 O.3     1  UNL1       -0.4337
     30 C          63.7286   83.5582   11.3970 C.3     1  UNL1        0.1928
     31 C          63.6540   82.0824   11.1395 C.3     1  UNL1        0.0525
     32 C          63.0745   84.5190   10.4489 C.ar    1  UNL1        0.0173
     33 C          62.1289   85.5603   10.9700 C.ar    1  UNL1       -0.0008
     34 C          61.4747   86.5211   10.0219 C.ar    1  UNL1       -0.0002
     35 C          61.7660   86.4406    8.5527 C.ar    1  UNL1       -0.0000
     36 C          62.7116   85.3993    8.0316 C.ar    1  UNL1       -0.0002
     37 C          63.3659   84.4385    8.9797 C.ar    1  UNL1       -0.0008
@<TRIPOS>UNITY_ATOM_ATTR
23 1
charge -1
@<TRIPOS>BOND
     1     1     2    1
     2     2     3   ar
     3     3     4   ar
     4     4     5   ar
     5     5     7    1
     6     7     8   ar
     7     8     9   ar
     8     9    10   ar
     9    10    13    1
    10    13    14   ar
    11    14    15   ar
    12    15    16   ar
    13    16    19    1
    14    19    22    1
    15    22    23   ar
    16    22    24   ar
    17    19    20    1
    18    20    21    1
    19    16    17   ar
    20    17    18   ar
    21    10    11   ar
    22    11    12   ar
    23     5     6   ar
    24     6    25    1
    25    25    26   am
    26    26    27    2
    27    26    29    1
    28    29    30    1
    29    30    31    1
    30    30    32    1
    31    32    33   ar
    32    33    34   ar
    33    34    35   ar
    34    35    36   ar
    35    36    37   ar
    36     6     2   ar
    37    37    32   ar
    38    12     7   ar
    39    18    13   ar
    40    21    19    1
    41    25    28    1
@<TRIPOS>MOLECULE
*****
 37 41 0 0 0
SMALL
GASTEIGER

@<TRIPOS>ATOM
      1 C          65.1305   83.2291   15.1472 C.3     1  UNL1        0.0570
      2 C          64.1228   83.3447   14.0422 C.ar    1  UNL1        0.1145
      3 N          63.2723   82.2322   13.5045 N.ar    1  UNL1       -0.0800
      4 O          62.4125   82.7932   12.4109 O.2     1  UNL1       -0.3524
      5 C          62.7315   84.2523   12.2726 C.ar    1  UNL1        0.1899
      6 C          63.7885   84.5932   13.2809 C.ar    1  UNL1        0.1073
      7 C          62.1038   85.2036   11.2974 C.ar    1  UNL1        0.0385
      8 C          61.2275   86.3157   11.7926 C.ar    1  UNL1        0.0032
      9 C          60.5998   87.2668   10.8173 C.ar    1  UNL1        0.0001
     10 C          60.8483   87.1059    9.3468 C.ar    1  UNL1        0.0000
     11 C          61.7247   85.9938    8.8516 C.ar    1  UNL1        0.0001
     12 C          62.3524   85.0427    9.8269 C.ar    1  UNL1        0.0032
     13 C          60.2206   88.0572    8.3716 C.ar    1  UNL1       -0.0000
     14 C          59.4238   87.5290    7.2157 C.ar    1  UNL1       -0.0003
     15 C          58.7960   88.4802    6.2404 C.ar    1  UNL1       -0.0039
     16 C          58.9651   89.9597    6.4211 C.ar    1  UNL1       -0.0179
     17 C          59.7620   90.4879    7.5770 C.ar    1  UNL1       -0.0039
     18 C          60.3897   89.5366    8.5522 C.ar    1  UNL1       -0.0003
     19 C          58.3374   90.9109    5.4459 C.3     1  UNL1        0.0509
     20 C          57.2858   91.6070    4.6337 C.3     1  UNL1        0.0100
     21 C          56.8988   90.5065    5.5768 C.3     1  UNL1        0.0100
     22 C          59.5578   91.6457    4.9763 C.2     1  UNL1        0.0534
     23 O          59.4534   93.0821    4.5566 O.co2   1  UNL1       -0.5489
     24 O          60.8828   90.9443    4.9264 O.co2   1  UNL1       -0.5489
     25 N          64.4034   85.9451   13.4909 N.am    1  UNL1       -0.2461
     26 C          64.1485   86.6955   14.7644 C.2     1  UNL1        0.4057
     27 O          63.2785   86.0938   15.8281 O.2     1  UNL1       -0.2261
     28 H          64.9744   86.3400   12.7928 H       1  UNL1        0.1583
     29 O          64.7633   88.0474   14.9745 O.3     1  UNL1       -0.4337
     30 C          63.9327   89.2843   14.8010 C.3     1  UNL1        0.1928
     31 C          63.1383   89.8221   15.9541 C.3     1  UNL1        0.0525
     32 C          63.8963   89.9833   13.4743 C.ar    1  UNL1        0.0173
     33 C          63.0793   89.4178   12.3507 C.ar    1  UNL1       -0.0008
     34 C          63.0429   90.1168   11.0240 C.ar    1  UNL1       -0.0002
     35 C          63.8236   91.3814   10.8209 C.ar    1  UNL1       -0.0000
     36 C          64.6406   91.9470   11.9446 C.ar    1  UNL1       -0.0002
     37 C          64.6770   91.2479   13.2713 C.ar    1  UNL1       -0.0008
@<TRIPOS>UNITY_ATOM_ATTR
23 1
charge -1
@<TRIPOS>BOND
     1     1     2    1
     2     2     3   ar
     3     3     4   ar
     4     4     5   ar
     5     5     7    1
     6     7     8   ar
     7     8     9   ar
     8     9    10   ar
     9    10    13    1
    10    13    14   ar
    11    14    15   ar
    12    15    16   ar
    13    16    19    1
    14    19    22    1
    15    22    23   ar
    16    22    24   ar
    17    19    20    1
    18    20    21    1
    19    16    17   ar
    20    17    18   ar
    21    10    11   ar
    22    11    12   ar
    23     5     6   ar
    24     6    25    1
    25    25    26   am
    26    26    27    2
    27    26    29    1
    28    29    30    1
    29    30    31    1
    30    30    32    1
    31    32    33   ar
    32    33    34   ar
    33    34    35   ar
    34    35    36   ar
    35    36    37   ar
    36     6     2   ar
    37    37    32   ar
    38    12     7   ar
    39    18    13   ar
    40    21    19    1
    41    25    28    1
@<TRIPOS>MOLECULE
*****
 37 41 0 0 0
SMALL
GASTEIGER

@<TRIPOS>ATOM
      1 C          66.5262   94.3239   14.5379 C.3     1  UNL1        0.0570
      2 C          65.7713   93.0846   14.9178 C.ar    1  UNL1        0.1145
      3 N          64.9082   92.9156   16.1330 N.ar    1  UNL1       -0.0800
      4 O          64.3506   91.5233   16.1154 O.2     1  UNL1       -0.3524
      5 C          64.8690   90.8317   14.8894 C.ar    1  UNL1        0.1899
      6 C          65.7471   91.7967   14.1493 C.ar    1  UNL1        0.1073
      7 C          64.5630   89.4225   14.4762 C.ar    1  UNL1        0.0385
      8 C          63.8333   89.1591   13.1925 C.ar    1  UNL1        0.0032
      9 C          63.5273   87.7500   12.7793 C.ar    1  UNL1        0.0001
     10 C          63.9512   86.6043   13.6498 C.ar    1  UNL1        0.0000
     11 C          64.6810   86.8678   14.9335 C.ar    1  UNL1        0.0001
     12 C          64.9869   88.2769   15.3467 C.ar    1  UNL1        0.0032
     13 C          63.6452   85.1951   13.2365 C.ar    1  UNL1       -0.0000
     14 C          64.1680   84.0458   14.0463 C.ar    1  UNL1       -0.0003
     15 C          63.8620   82.6366   13.6330 C.ar    1  UNL1       -0.0039
     16 C          63.0333   82.3769   12.4100 C.ar    1  UNL1       -0.0179
     17 C          62.5106   83.5263   11.6002 C.ar    1  UNL1       -0.0039
     18 C          62.8165   84.9354   12.0135 C.ar    1  UNL1       -0.0003
     19 C          62.7273   80.9678   11.9967 C.3     1  UNL1        0.0509
     20 C          62.6072   79.7464   11.1344 C.3     1  UNL1        0.0100
     21 C          63.1562   81.0188   10.5602 C.3     1  UNL1        0.0100
     22 C          62.1922   80.4275   13.2896 C.2     1  UNL1        0.0534
     23 O          63.0348   79.5095   14.1248 O.co2   1  UNL1       -0.5489
     24 O          60.8147   80.8051   13.7475 O.co2   1  UNL1       -0.5489
     25 N          66.4734   91.5220   12.8659 N.am    1  UNL1       -0.2461
     26 C          67.9225   91.8849   12.7317 C.2     1  UNL1        0.4057
     27 O          68.6456   92.5225   13.8810 O.2     1  UNL1       -0.2261
     28 H          65.9988   91.1035   12.1116 H       1  UNL1        0.1583
     29 O          68.6488   91.6102   11.4483 O.3     1  UNL1       -0.4337
     30 C          68.0887   92.1066   10.1484 C.3     1  UNL1        0.1928
     31 C          68.1358   91.2339    8.9294 C.3     1  UNL1        0.0525
     32 C          67.4813   93.4757   10.0676 C.ar    1  UNL1        0.0173
     33 C          66.3088   93.8285   10.9340 C.ar    1  UNL1       -0.0008
     34 C          65.7014   95.1976   10.8532 C.ar    1  UNL1       -0.0002
     35 C          66.2665   96.2141    9.9059 C.ar    1  UNL1       -0.0000
     36 C          67.4391   95.8614    9.0395 C.ar    1  UNL1       -0.0002
     37 C          68.0465   94.4922    9.1203 C.ar    1  UNL1       -0.0008
@<TRIPOS>UNITY_ATOM_ATTR
23 1
charge -1
@<TRIPOS>BOND
     1     1     2    1
     2     2     3   ar
     3     3     4   ar
     4     4     5   ar
     5     5     7    1
     6     7     8   ar
     7     8     9   ar
     8     9    10   ar
     9    10    13    1
    10    13    14   ar
    11    14    15   ar
    12    15    16   ar
    13    16    19    1
    14    19    22    1
    15    22    23   ar
    16    22    24   ar
    17    19    20    1
    18    20    21    1
    19    16    17   ar
    20    17    18   ar
    21    10    11   ar
    22    11    12   ar
    23     5     6   ar
    24     6    25    1
    25    25    26   am
    26    26    27    2
    27    26    29    1
    28    29    30    1
    29    30    31    1
    30    30    32    1
    31    32    33   ar
    32    33    34   ar
    33    34    35   ar
    34    35    36   ar
    35    36    37   ar
    36     6     2   ar
    37    37    32   ar
    38    12     7   ar
    39    18    13   ar
    40    21    19    1
    41    25    28    1
@<TRIPOS>MOLECULE
*****
 37 41 0 0 0
SMALL
GASTEIGER

@<TRIPOS>ATOM
      1 C          65.7603   94.1009   12.3513 C.3     1  UNL1        0.0570
      2 C          65.6438   92.8481   13.1680 C.ar    1  UNL1        0.1145
      3 N          66.1617   92.6531   14.5622 N.ar    1  UNL1       -0.0800
      4 O          65.8270   91.2548   14.9896 O.2     1  UNL1       -0.3524
      5 C          65.1023   90.5856   13.8596 C.ar    1  UNL1        0.1899
      6 C          64.9891   91.5703   12.7338 C.ar    1  UNL1        0.1073
      7 C          64.5820   89.1786   13.8561 C.ar    1  UNL1        0.0385
      8 C          63.7448   88.6915   12.7109 C.ar    1  UNL1        0.0032
      9 C          63.2246   87.2846   12.7074 C.ar    1  UNL1        0.0001
     10 C          63.5417   86.3649   13.8491 C.ar    1  UNL1        0.0000
     11 C          64.3790   86.8520   14.9943 C.ar    1  UNL1        0.0001
     12 C          64.8992   88.2589   14.9978 C.ar    1  UNL1        0.0032
     13 C          63.0215   84.9579   13.8456 C.ar    1  UNL1       -0.0000
     14 C          62.9780   84.1776   12.5653 C.ar    1  UNL1       -0.0003
     15 C          62.4578   82.7707   12.5618 C.ar    1  UNL1       -0.0039
     16 C          61.9811   82.1441   13.8386 C.ar    1  UNL1       -0.0179
     17 C          62.0247   82.9245   15.1189 C.ar    1  UNL1       -0.0039
     18 C          62.5449   84.3313   15.1224 C.ar    1  UNL1       -0.0003
     19 C          61.4609   80.7372   13.8351 C.3     1  UNL1        0.0509
     20 C          60.5095   79.5859   13.9732 C.3     1  UNL1        0.0100
     21 C          60.0384   80.9845   14.2416 C.3     1  UNL1        0.0100
     22 C          62.7028   80.0013   13.4274 C.2     1  UNL1        0.0534
     23 O          63.9062   80.0073   14.3229 O.co2   1  UNL1       -0.5489
     24 O          62.7413   79.2595   12.1243 O.co2   1  UNL1       -0.5489
     25 N          64.3358   91.3210   11.4067 N.am    1  UNL1       -0.2461
     26 C          62.8773   90.9770   11.3415 C.2     1  UNL1        0.4057
     27 O          62.0719   90.8822   12.6034 O.2     1  UNL1       -0.2261
     28 H          64.8644   91.3833   10.5785 H       1  UNL1        0.1583
     29 O          62.2241   90.7277   10.0144 O.3     1  UNL1       -0.4337
     30 C          60.9654   89.9152    9.9388 C.3     1  UNL1        0.1928
     31 C          59.6911   90.4505   10.5215 C.3     1  UNL1        0.0525
     32 C          60.9812   88.5674    9.2807 C.ar    1  UNL1        0.0173
     33 C          62.1163   87.6209    9.5367 C.ar    1  UNL1       -0.0008
     34 C          62.1321   86.2731    8.8785 C.ar    1  UNL1       -0.0002
     35 C          61.0127   85.8718    7.9643 C.ar    1  UNL1       -0.0000
     36 C          59.8776   86.8183    7.7082 C.ar    1  UNL1       -0.0002
     37 C          59.8618   88.1662    8.3664 C.ar    1  UNL1       -0.0008
@<TRIPOS>UNITY_ATOM_ATTR
23 1
charge -1
@<TRIPOS>BOND
     1     1     2    1
     2     2     3   ar
     3     3     4   ar
     4     4     5   ar
     5     5     7    1
     6     7     8   ar
     7     8     9   ar
     8     9    10   ar
     9    10    13    1
    10    13    14   ar
    11    14    15   ar
    12    15    16   ar
    13    16    19    1
    14    19    22    1
    15    22    23   ar
    16    22    24   ar
    17    19    20    1
    18    20    21    1
    19    16    17   ar
    20    17    18   ar
    21    10    11   ar
    22    11    12   ar
    23     5     6   ar
    24     6    25    1
    25    25    26   am
    26    26    27    2
    27    26    29    1
    28    29    30    1
    29    30    31    1
    30    30    32    1
    31    32    33   ar
    32    33    34   ar
    33    34    35   ar
    34    35    36   ar
    35    36    37   ar
    36     6     2   ar
    37    37    32   ar
    38    12     7   ar
    39    18    13   ar
    40    21    19    1
    41    25    28    1
@<TRIPOS>MOLECULE
*****
 37 41 0 0 0
SMALL
GASTEIGER

@<TRIPOS>ATOM
      1 C          65.0798   83.8531   15.5370 C.3     1  UNL1        0.0570
      2 C          64.1109   83.8890   14.3925 C.ar    1  UNL1        0.1145
      3 N          63.3354   82.7220   13.8568 N.ar    1  UNL1       -0.0800
      4 O          62.4926   83.2100   12.7160 O.2     1  UNL1       -0.3524
      5 C          62.7471   84.6786   12.5466 C.ar    1  UNL1        0.1899
      6 C          63.7473   85.0982   13.5827 C.ar    1  UNL1        0.1073
      7 C          62.1129   85.5708   11.5211 C.ar    1  UNL1        0.0385
      8 C          62.4062   85.3660   10.0644 C.ar    1  UNL1        0.0032
      9 C          61.7719   86.2582    9.0389 C.ar    1  UNL1        0.0001
     10 C          60.8443   87.3553    9.4702 C.ar    1  UNL1        0.0000
     11 C          60.5510   87.5601   10.9268 C.ar    1  UNL1        0.0001
     12 C          61.1852   86.6679   11.9523 C.ar    1  UNL1        0.0032
     13 C          60.2100   88.2475    8.4446 C.ar    1  UNL1       -0.0000
     14 C          59.4433   87.6502    7.3021 C.ar    1  UNL1       -0.0003
     15 C          58.8090   88.5424    6.2766 C.ar    1  UNL1       -0.0039
     16 C          58.9415   90.0320    6.3936 C.ar    1  UNL1       -0.0179
     17 C          59.7083   90.6293    7.5362 C.ar    1  UNL1       -0.0039
     18 C          60.3425   89.7370    8.5617 C.ar    1  UNL1       -0.0003
     19 C          58.3073   90.9242    5.3682 C.3     1  UNL1        0.0509
     20 C          57.2498   91.5744    4.5262 C.3     1  UNL1        0.0100
     21 C          56.8683   90.5371    5.5404 C.3     1  UNL1        0.0100
     22 C          59.5259   91.6212    4.8398 C.2     1  UNL1        0.0534
     23 O          60.8519   90.9197    4.8435 O.co2   1  UNL1       -0.5489
     24 O          59.4187   93.0195    4.3078 O.co2   1  UNL1       -0.5489
     25 N          64.2888   86.4837   13.7754 N.am    1  UNL1       -0.2461
     26 C          63.9380   87.2614   15.0090 C.2     1  UNL1        0.4057
     27 O          63.0455   86.6535   16.0503 O.2     1  UNL1       -0.2261
     28 H          64.8745   86.8826   13.0920 H       1  UNL1        0.1583
     29 O          64.4795   88.6469   15.2016 O.3     1  UNL1       -0.4337
     30 C          64.2701   89.6880   14.1422 C.3     1  UNL1        0.1928
     31 C          63.2618   89.4599   13.0554 C.3     1  UNL1        0.0525
     32 C          65.0692   90.9571   14.1696 C.ar    1  UNL1        0.0173
     33 C          65.6170   91.4707   15.4681 C.ar    1  UNL1       -0.0008
     34 C          66.4160   92.7398   15.4955 C.ar    1  UNL1       -0.0002
     35 C          66.6673   93.4955   14.2244 C.ar    1  UNL1       -0.0000
     36 C          66.1195   92.9819   12.9258 C.ar    1  UNL1       -0.0002
     37 C          65.3204   91.7127   12.8984 C.ar    1  UNL1       -0.0008
@<TRIPOS>UNITY_ATOM_ATTR
23 1
charge -1
@<TRIPOS>BOND
     1     1     2    1
     2     2     3   ar
     3     3     4   ar
     4     4     5   ar
     5     5     7    1
     6     7     8   ar
     7     8     9   ar
     8     9    10   ar
     9    10    13    1
    10    13    14   ar
    11    14    15   ar
    12    15    16   ar
    13    16    19    1
    14    19    22    1
    15    22    23   ar
    16    22    24   ar
    17    19    20    1
    18    20    21    1
    19    16    17   ar
    20    17    18   ar
    21    10    11   ar
    22    11    12   ar
    23     5     6   ar
    24     6    25    1
    25    25    26   am
    26    26    27    2
    27    26    29    1
    28    29    30    1
    29    30    31    1
    30    30    32    1
    31    32    33   ar
    32    33    34   ar
    33    34    35   ar
    34    35    36   ar
    35    36    37   ar
    36     6     2   ar
    37    37    32   ar
    38    12     7   ar
    39    18    13   ar
    40    21    19    1
    41    25    28    1
@<TRIPOS>MOLECULE
*****
 37 41 0 0 0
SMALL
GASTEIGER

@<TRIPOS>ATOM
      1 C          62.3152   79.9973   12.3103 C.3     1  UNL1        0.0570
      2 C          62.4264   81.2270   13.1621 C.ar    1  UNL1        0.1145
      3 N          61.9542   81.3635   14.5793 N.ar    1  UNL1       -0.0800
      4 O          62.2652   82.7570   15.0392 O.2     1  UNL1       -0.3524
      5 C          62.9297   83.4816   13.9063 C.ar    1  UNL1        0.1899
      6 C          63.0293   82.5361   12.7462 C.ar    1  UNL1        0.1073
      7 C          63.4101   84.9025   13.9296 C.ar    1  UNL1        0.0385
      8 C          64.3067   85.3730   15.0362 C.ar    1  UNL1        0.0032
      9 C          64.7872   86.7938   15.0593 C.ar    1  UNL1        0.0001
     10 C          64.3709   87.7440   13.9759 C.ar    1  UNL1        0.0000
     11 C          63.4743   87.2735   12.8693 C.ar    1  UNL1        0.0001
     12 C          62.9939   85.8527   12.8461 C.ar    1  UNL1        0.0032
     13 C          64.8514   89.1648   13.9991 C.ar    1  UNL1       -0.0000
     14 C          64.1524   90.2065   13.1767 C.ar    1  UNL1       -0.0003
     15 C          64.6329   91.6273   13.1999 C.ar    1  UNL1       -0.0039
     16 C          65.8124   92.0064   14.0456 C.ar    1  UNL1       -0.0179
     17 C          66.5114   90.9647   14.8680 C.ar    1  UNL1       -0.0039
     18 C          66.0309   89.5440   14.8448 C.ar    1  UNL1       -0.0003
     19 C          66.2928   93.4272   14.0689 C.3     1  UNL1        0.0509
     20 C          66.6170   94.8134   13.5964 C.3     1  UNL1        0.0100
     21 C          66.0096   93.8212   12.6495 C.3     1  UNL1        0.0100
     22 C          66.7430   93.5266   15.4962 C.2     1  UNL1        0.0534
     23 O          68.0485   94.1873   15.8267 O.co2   1  UNL1       -0.5489
     24 O          65.8877   92.9654   16.5932 O.co2   1  UNL1       -0.5489
     25 N          63.6268   82.8452   11.4055 N.am    1  UNL1       -0.2461
     26 C          62.9372   83.8030   10.4798 C.2     1  UNL1        0.4057
     27 O          61.6499   84.4517   10.8947 O.2     1  UNL1       -0.2261
     28 H          64.4717   82.4195   11.1332 H       1  UNL1        0.1583
     29 O          63.5347   84.1121    9.1392 O.3     1  UNL1       -0.4337
     30 C          62.7533   84.9063    8.1348 C.3     1  UNL1        0.1928
     31 C          62.7975   84.5307    6.6833 C.3     1  UNL1        0.0525
     32 C          61.9276   86.0760    8.5820 C.ar    1  UNL1        0.0173
     33 C          62.5644   87.1907    9.3579 C.ar    1  UNL1       -0.0008
     34 C          61.7387   88.3604    9.8051 C.ar    1  UNL1       -0.0002
     35 C          60.2762   88.4155    9.4765 C.ar    1  UNL1       -0.0000
     36 C          59.6394   87.3008    8.7007 C.ar    1  UNL1       -0.0002
     37 C          60.4651   86.1310    8.2534 C.ar    1  UNL1       -0.0008
@<TRIPOS>UNITY_ATOM_ATTR
23 1
charge -1
@<TRIPOS>BOND
     1     1     2    1
     2     2     3   ar
     3     3     4   ar
     4     4     5   ar
     5     5     7    1
     6     7     8   ar
     7     8     9   ar
     8     9    10   ar
     9    10    13    1
    10    13    14   ar
    11    14    15   ar
    12    15    16   ar
    13    16    19    1
    14    19    22    1
    15    22    23   ar
    16    22    24   ar
    17    19    20    1
    18    20    21    1
    19    16    17   ar
    20    17    18   ar
    21    10    11   ar
    22    11    12   ar
    23     5     6   ar
    24     6    25    1
    25    25    26   am
    26    26    27    2
    27    26    29    1
    28    29    30    1
    29    30    31    1
    30    30    32    1
    31    32    33   ar
    32    33    34   ar
    33    34    35   ar
    34    35    36   ar
    35    36    37   ar
    36     6     2   ar
    37    37    32   ar
    38    12     7   ar
    39    18    13   ar
    40    21    19    1
    41    25    28    1
@<TRIPOS>MOLECULE
*****
 37 41 0 0 0
SMALL
GASTEIGER

@<TRIPOS>ATOM
      1 C          59.7621   87.5794   10.7776 C.3     1  UNL1        0.0570
      2 C          59.4570   87.9095    9.3465 C.ar    1  UNL1        0.1145
      3 N          58.5730   87.1184    8.4284 N.ar    1  UNL1       -0.0800
      4 O          58.5520   87.8086    7.0967 O.2     1  UNL1       -0.3524
      5 C          59.4230   89.0261    7.1918 C.ar    1  UNL1        0.1899
      6 C          59.9823   89.0884    8.5822 C.ar    1  UNL1        0.1073
      7 C          59.6882   90.0087    6.0899 C.ar    1  UNL1        0.0385
      8 C          58.5695   90.8489    5.5490 C.ar    1  UNL1        0.0032
      9 C          58.8347   91.8315    4.4472 C.ar    1  UNL1        0.0001
     10 C          60.2185   91.9739    3.8862 C.ar    1  UNL1        0.0000
     11 C          61.3372   91.1336    4.4270 C.ar    1  UNL1        0.0001
     12 C          61.0720   90.1511    5.5289 C.ar    1  UNL1        0.0032
     13 C          60.4837   92.9565    2.7842 C.ar    1  UNL1       -0.0000
     14 C          61.2567   92.5322    1.5709 C.ar    1  UNL1       -0.0003
     15 C          61.5219   93.5148    0.4689 C.ar    1  UNL1       -0.0039
     16 C          61.0139   94.9218    0.5804 C.ar    1  UNL1       -0.0179
     17 C          60.2408   95.3461    1.7939 C.ar    1  UNL1       -0.0039
     18 C          59.9757   94.3635    2.8957 C.ar    1  UNL1       -0.0003
     19 C          61.2790   95.9044   -0.5214 C.3     1  UNL1        0.0509
     20 C          61.0250   96.8553   -1.6533 C.3     1  UNL1        0.0100
     21 C          59.8763   96.1543   -0.9906 C.3     1  UNL1        0.0100
     22 C          62.7737   95.9959   -0.4349 C.2     1  UNL1        0.0534
     23 O          63.6199   95.5658   -1.5964 O.co2   1  UNL1       -0.5489
     24 O          63.4223   96.5173    0.8131 O.co2   1  UNL1       -0.5489
     25 N          60.9050   90.1443    9.1149 N.am    1  UNL1       -0.2461
     26 C          62.2453   89.7598    9.6678 C.2     1  UNL1        0.4057
     27 O          62.6630   88.3192    9.6880 O.2     1  UNL1       -0.2261
     28 H          60.6309   91.0898    9.1017 H       1  UNL1        0.1583
     29 O          63.1679   90.8157   10.2005 O.3     1  UNL1       -0.4337
     30 C          63.5010   90.8524   11.6626 C.3     1  UNL1        0.1928
     31 C          62.7711   89.9585   12.6208 C.3     1  UNL1        0.0525
     32 C          64.5640   91.7831   12.1665 C.ar    1  UNL1        0.0173
     33 C          65.0840   92.8770   11.2817 C.ar    1  UNL1       -0.0008
     34 C          66.1470   93.8077   11.7855 C.ar    1  UNL1       -0.0002
     35 C          66.6900   93.6445   13.1742 C.ar    1  UNL1       -0.0000
     36 C          66.1700   92.5505   14.0590 C.ar    1  UNL1       -0.0002
     37 C          65.1070   91.6198   13.5552 C.ar    1  UNL1       -0.0008
@<TRIPOS>UNITY_ATOM_ATTR
23 1
charge -1
@<TRIPOS>BOND
     1     1     2    1
     2     2     3   ar
     3     3     4   ar
     4     4     5   ar
     5     5     7    1
     6     7     8   ar
     7     8     9   ar
     8     9    10   ar
     9    10    13    1
    10    13    14   ar
    11    14    15   ar
    12    15    16   ar
    13    16    19    1
    14    19    22    1
    15    22    23   ar
    16    22    24   ar
    17    19    20    1
    18    20    21    1
    19    16    17   ar
    20    17    18   ar
    21    10    11   ar
    22    11    12   ar
    23     5     6   ar
    24     6    25    1
    25    25    26   am
    26    26    27    2
    27    26    29    1
    28    29    30    1
    29    30    31    1
    30    30    32    1
    31    32    33   ar
    32    33    34   ar
    33    34    35   ar
    34    35    36   ar
    35    36    37   ar
    36     6     2   ar
    37    37    32   ar
    38    12     7   ar
    39    18    13   ar
    40    21    19    1
    41    25    28    1
