@<TRIPOS>MOLECULE
*****
 15 16 0 0 0
SMALL
GASTEIGER

@<TRIPOS>ATOM
      1 C          65.1716   91.4439   14.4558 C.3     1  UNL1        0.1311
      2 C          66.6250   91.3427   14.8130 C.3     1  UNL1        0.0338
      3 C          67.4199   91.9576   13.6995 C.3     1  UNL1        0.0367
      4 C          66.4579   92.4388   12.6541 C.3     1  UNL1        0.1389
      5 O          65.0684   92.1214   13.1215 O.3     1  UNL1       -0.3529
      6 C          66.8215   93.1183   11.3671 C.ar    1  UNL1        0.0237
      7 C          67.6870   92.4133   10.3652 C.ar    1  UNL1        0.0012
      8 C          68.0506   93.0927    9.0784 C.ar    1  UNL1        0.0204
      9 C          67.5488   94.4773    8.7934 C.ar    1  UNL1        0.0989
     10 N          66.6834   95.1824    9.7953 N.ar    1  UNL1       -0.2426
     11 C          66.3197   94.5029   11.0822 C.ar    1  UNL1        0.0969
     12 N          63.6082   91.7107   16.5135 N.3     1  UNL1       -0.3191
     13 C          64.0232   90.9537   15.2869 C.3     1  UNL1        0.0951
     14 H          62.8175   91.2392   16.9528 H       1  UNL1        0.1189
     15 H          63.3365   92.6585   16.2524 H       1  UNL1        0.1189
@<TRIPOS>BOND
     1    12    13    1
     2    13     1    1
     3     1     2    1
     4     2     3    1
     5     3     4    1
     6     4     6    1
     7     6     7   ar
     8     7     8   ar
     9     8     9   ar
    10     9    10   ar
    11    10    11   ar
    12     4     5    1
    13     5     1    1
    14    11     6   ar
    15    12    14    1
    16    12    15    1
@<TRIPOS>MOLECULE
*****
 15 16 0 0 0
SMALL
GASTEIGER

@<TRIPOS>ATOM
      1 C          60.4988   87.2683    9.0718 C.3     1  UNL1        0.1311
      2 C          61.2235   88.1930   10.0045 C.3     1  UNL1        0.0338
      3 C          62.1631   87.3704   10.8354 C.3     1  UNL1        0.0367
      4 C          62.0192   85.9373   10.4162 C.3     1  UNL1        0.1389
      5 O          60.9907   85.8743    9.3263 O.3     1  UNL1       -0.3529
      6 C          62.7718   84.7720   10.9869 C.ar    1  UNL1        0.0237
      7 C          63.5641   83.8753   10.0823 C.ar    1  UNL1        0.0012
      8 C          64.3166   82.7100   10.6530 C.ar    1  UNL1        0.0204
      9 C          64.2770   82.4414   12.1282 C.ar    1  UNL1        0.0989
     10 N          63.4847   83.3381   13.0327 N.ar    1  UNL1       -0.2426
     11 C          62.7322   84.5033   12.4621 C.ar    1  UNL1        0.0969
     12 N          58.3400   86.7316    7.7296 N.3     1  UNL1       -0.3191
     13 C          59.4641   87.6676    8.0619 C.3     1  UNL1        0.0951
     14 H          57.7353   87.1615    7.0297 H       1  UNL1        0.1189
     15 H          57.7995   86.5367    8.5724 H       1  UNL1        0.1189
@<TRIPOS>BOND
     1    12    13    1
     2    13     1    1
     3     1     2    1
     4     2     3    1
     5     3     4    1
     6     4     6    1
     7     6     7   ar
     8     7     8   ar
     9     8     9   ar
    10     9    10   ar
    11    10    11   ar
    12     4     5    1
    13     5     1    1
    14    11     6   ar
    15    12    14    1
    16    12    15    1
@<TRIPOS>MOLECULE
*****
 15 16 0 0 0
SMALL
GASTEIGER

@<TRIPOS>ATOM
      1 C          60.6941   87.8678   10.8004 C.3     1  UNL1        0.1311
      2 C          61.1570   87.6599    9.3887 C.3     1  UNL1        0.0338
      3 C          62.0068   86.4243    9.3568 C.3     1  UNL1        0.0367
      4 C          62.0691   85.8685   10.7487 C.3     1  UNL1        0.1389
      5 O          61.2579   86.7606   11.6408 O.3     1  UNL1       -0.3529
      6 C          62.8123   84.6367   11.1737 C.ar    1  UNL1        0.0237
      7 C          63.5697   83.8307   10.1605 C.ar    1  UNL1        0.0012
      8 C          64.3129   82.5991   10.5856 C.ar    1  UNL1        0.0204
      9 C          64.2986   82.1734   12.0239 C.ar    1  UNL1        0.0989
     10 N          63.5411   82.9794   13.0371 N.ar    1  UNL1       -0.2426
     11 C          62.7980   84.2111   12.6120 C.ar    1  UNL1        0.0969
     12 N          60.1772   89.7248   12.5423 N.3     1  UNL1       -0.3191
     13 C          59.8208   88.9864   11.2862 C.3     1  UNL1        0.0951
     14 H          59.4796   90.4470   12.7217 H       1  UNL1        0.1189
     15 H          61.0944   90.1576   12.4336 H       1  UNL1        0.1189
@<TRIPOS>BOND
     1    12    13    1
     2    13     1    1
     3     1     2    1
     4     2     3    1
     5     3     4    1
     6     4     6    1
     7     6     7   ar
     8     7     8   ar
     9     8     9   ar
    10     9    10   ar
    11    10    11   ar
    12     4     5    1
    13     5     1    1
    14    11     6   ar
    15    12    14    1
    16    12    15    1
@<TRIPOS>MOLECULE
*****
 15 16 0 0 0
SMALL
GASTEIGER

@<TRIPOS>ATOM
      1 C          67.4947   94.2937    9.1365 C.3     1  UNL1        0.1311
      2 C          68.2817   93.0270    8.9742 C.3     1  UNL1        0.0338
      3 C          67.9957   92.1490   10.1563 C.3     1  UNL1        0.0367
      4 C          67.0320   92.8730   11.0491 C.3     1  UNL1        0.1389
      5 O          66.7224   94.1985   10.4189 O.3     1  UNL1       -0.3529
      6 C          66.4757   92.3614   12.3448 C.ar    1  UNL1        0.0237
      7 C          67.3932   92.0901   13.5000 C.ar    1  UNL1        0.0012
      8 C          66.8368   91.5784   14.7956 C.ar    1  UNL1        0.0204
      9 C          65.3629   91.3381   14.9360 C.ar    1  UNL1        0.0989
     10 N          64.4453   91.6094   13.7808 N.ar    1  UNL1       -0.2426
     11 C          65.0017   92.1210   12.4853 C.ar    1  UNL1        0.0969
     12 N          67.6284   96.8518    8.7028 N.3     1  UNL1       -0.3191
     13 C          67.4823   95.4521    8.1837 C.3     1  UNL1        0.0951
     14 H          67.5982   97.5085    7.9229 H       1  UNL1        0.1189
     15 H          68.5202   96.9426    9.1894 H       1  UNL1        0.1189
@<TRIPOS>BOND
     1    12    13    1
     2    13     1    1
     3     1     2    1
     4     2     3    1
     5     3     4    1
     6     4     6    1
     7     6     7   ar
     8     7     8   ar
     9     8     9   ar
    10     9    10   ar
    11    10    11   ar
    12     4     5    1
    13     5     1    1
    14    11     6   ar
    15    12    14    1
    16    12    15    1
@<TRIPOS>MOLECULE
*****
 15 16 0 0 0
SMALL
GASTEIGER

@<TRIPOS>ATOM
      1 C          63.2646   89.9573   12.6064 C.3     1  UNL1        0.1311
      2 C          63.4614   90.9868   11.5334 C.3     1  UNL1        0.0338
      3 C          62.7843   90.4943   10.2888 C.3     1  UNL1        0.0367
      4 C          62.1691   89.1604   10.5926 C.3     1  UNL1        0.1389
      5 O          62.4659   88.8286   12.0250 O.3     1  UNL1       -0.3529
      6 C          61.3932   88.3081    9.6326 C.ar    1  UNL1        0.0237
      7 C          61.8397   86.9052    9.3454 C.ar    1  UNL1        0.0012
      8 C          61.0639   86.0529    8.3854 C.ar    1  UNL1        0.0204
      9 C          59.8416   86.6036    7.7125 C.ar    1  UNL1        0.0989
     10 N          59.3951   88.0065    7.9997 N.ar    1  UNL1       -0.2426
     11 C          60.1709   88.8587    8.9597 C.ar    1  UNL1        0.0969
     12 N          63.4633   91.2434   14.8551 N.3     1  UNL1       -0.3191
     13 C          63.7766   90.0417   14.0138 C.3     1  UNL1        0.0951
     14 H          63.8872   91.1335   15.7763 H       1  UNL1        0.1189
     15 H          62.4522   91.3344   14.9548 H       1  UNL1        0.1189
@<TRIPOS>BOND
     1    12    13    1
     2    13     1    1
     3     1     2    1
     4     2     3    1
     5     3     4    1
     6     4     6    1
     7     6     7   ar
     8     7     8   ar
     9     8     9   ar
    10     9    10   ar
    11    10    11   ar
    12     4     5    1
    13     5     1    1
    14    11     6   ar
    15    12    14    1
    16    12    15    1
@<TRIPOS>MOLECULE
*****
 15 16 0 0 0
SMALL
GASTEIGER

@<TRIPOS>ATOM
      1 C          63.7309   87.8961   13.4695 C.3     1  UNL1        0.1311
      2 C          64.5113   87.5422   14.7007 C.3     1  UNL1        0.0338
      3 C          64.5209   86.0478   14.8297 C.3     1  UNL1        0.0367
      4 C          63.7466   85.4782   13.6782 C.3     1  UNL1        0.1389
      5 O          63.2583   86.6205   12.8376 O.3     1  UNL1       -0.3529
      6 C          63.5032   84.0218   13.4139 C.ar    1  UNL1        0.0237
      7 C          63.1410   83.5604   12.0333 C.ar    1  UNL1        0.0012
      8 C          62.8977   82.1041   11.7690 C.ar    1  UNL1        0.0204
      9 C          63.0166   81.1092   12.8852 C.ar    1  UNL1        0.0989
     10 N          63.3788   81.5705   14.2658 N.ar    1  UNL1       -0.2426
     11 C          63.6221   83.0268   14.5301 C.ar    1  UNL1        0.0969
     12 N          62.1696   89.9633   13.2718 N.3     1  UNL1       -0.3191
     13 C          63.4691   89.2824   12.9597 C.3     1  UNL1        0.0951
     14 H          62.1623   90.8918   12.8497 H       1  UNL1        0.1189
     15 H          62.0647   90.0487   14.2828 H       1  UNL1        0.1189
@<TRIPOS>BOND
     1    12    13    1
     2    13     1    1
     3     1     2    1
     4     2     3    1
     5     3     4    1
     6     4     6    1
     7     6     7   ar
     8     7     8   ar
     9     8     9   ar
    10     9    10   ar
    11    10    11   ar
    12     4     5    1
    13     5     1    1
    14    11     6   ar
    15    12    14    1
    16    12    15    1
@<TRIPOS>MOLECULE
*****
 15 16 0 0 0
SMALL
GASTEIGER

@<TRIPOS>ATOM
      1 C          63.4286   84.0946   10.7141 C.3     1  UNL1        0.1311
      2 C          62.8194   84.6457   11.9692 C.3     1  UNL1        0.0338
      3 C          61.8444   85.7169   11.5796 C.3     1  UNL1        0.0367
      4 C          61.8509   85.8278   10.0837 C.3     1  UNL1        0.1389
      5 O          62.8300   84.8252    9.5488 O.3     1  UNL1       -0.3529
      6 C          61.0235   86.7751    9.2662 C.ar    1  UNL1        0.0237
      7 C          60.0666   86.2425    8.2412 C.ar    1  UNL1        0.0012
      8 C          59.2393   87.1898    7.4238 C.ar    1  UNL1        0.0204
      9 C          59.3689   88.6697    7.6314 C.ar    1  UNL1        0.0989
     10 N          60.3258   89.2023    8.6564 N.ar    1  UNL1       -0.2426
     11 C          61.1531   88.2550    9.4738 C.ar    1  UNL1        0.0969
     12 N          65.0578   82.4515   11.8955 N.3     1  UNL1       -0.3191
     13 C          64.4559   83.0043   10.6377 C.3     1  UNL1        0.0951
     14 H          65.7320   81.7237   11.6585 H       1  UNL1        0.1189
     15 H          64.3212   82.0555   12.4795 H       1  UNL1        0.1189
@<TRIPOS>BOND
     1    12    13    1
     2    13     1    1
     3     1     2    1
     4     2     3    1
     5     3     4    1
     6     4     6    1
     7     6     7   ar
     8     7     8   ar
     9     8     9   ar
    10     9    10   ar
    11    10    11   ar
    12     4     5    1
    13     5     1    1
    14    11     6   ar
    15    12    14    1
    16    12    15    1
@<TRIPOS>MOLECULE
*****
 15 16 0 0 0
SMALL
GASTEIGER

@<TRIPOS>ATOM
      1 C          63.0613   83.9773   13.1895 C.3     1  UNL1        0.1311
      2 C          63.5570   83.3755   11.9080 C.3     1  UNL1        0.0338
      3 C          63.1299   84.2684   10.7810 C.3     1  UNL1        0.0367
      4 C          62.3703   85.4221   11.3659 C.3     1  UNL1        0.1389
      5 O          62.3279   85.2422   12.8544 O.3     1  UNL1       -0.3529
      6 C          61.7602   86.5565   10.5971 C.ar    1  UNL1        0.0237
      7 C          60.8427   86.2738    9.4446 C.ar    1  UNL1        0.0012
      8 C          60.2327   87.4082    8.6759 C.ar    1  UNL1        0.0204
      9 C          60.5401   88.8253    9.0597 C.ar    1  UNL1        0.0989
     10 N          61.4575   89.1080   10.2122 N.ar    1  UNL1       -0.2426
     11 C          62.0675   87.9736   10.9809 C.ar    1  UNL1        0.0969
     12 N          62.4489   82.2394   15.0211 N.3     1  UNL1       -0.3191
     13 C          63.2635   83.4133   14.5647 C.3     1  UNL1        0.0951
     14 H          62.7155   81.9903   15.9736 H       1  UNL1        0.1189
     15 H          62.6186   81.4466   14.4022 H       1  UNL1        0.1189
@<TRIPOS>BOND
     1    12    13    1
     2    13     1    1
     3     1     2    1
     4     2     3    1
     5     3     4    1
     6     4     6    1
     7     6     7   ar
     8     7     8   ar
     9     8     9   ar
    10     9    10   ar
    11    10    11   ar
    12     4     5    1
    13     5     1    1
    14    11     6   ar
    15    12    14    1
    16    12    15    1
@<TRIPOS>MOLECULE
*****
 15 16 0 0 0
SMALL
GASTEIGER

@<TRIPOS>ATOM
      1 C          63.3968   90.6897   12.3138 C.3     1  UNL1        0.1311
      2 C          63.4696   89.6189   13.3618 C.3     1  UNL1        0.0338
      3 C          64.6418   89.9175   14.2488 C.3     1  UNL1        0.0367
      4 C          65.2934   91.1728   13.7491 C.3     1  UNL1        0.1389
      5 O          64.5239   91.6500   12.5532 O.3     1  UNL1       -0.3529
      6 C          66.5022   91.8346   14.3413 C.ar    1  UNL1        0.0237
      7 C          66.4180   92.4784   15.6935 C.ar    1  UNL1        0.0012
      8 C          67.6268   93.1402   16.2857 C.ar    1  UNL1        0.0204
      9 C          68.9199   93.1582   15.5257 C.ar    1  UNL1        0.0989
     10 N          69.0042   92.5144   14.1736 N.ar    1  UNL1       -0.2426
     11 C          67.7954   91.8526   13.5814 C.ar    1  UNL1        0.0969
     12 N          60.9152   90.6847   11.5445 N.3     1  UNL1       -0.3191
     13 C          62.3760   90.7836   11.2187 C.3     1  UNL1        0.0951
     14 H          60.3691   90.7684   10.6871 H       1  UNL1        0.1189
     15 H          60.6583   91.4350   12.1859 H       1  UNL1        0.1189
@<TRIPOS>BOND
     1    12    13    1
     2    13     1    1
     3     1     2    1
     4     2     3    1
     5     3     4    1
     6     4     6    1
     7     6     7   ar
     8     7     8   ar
     9     8     9   ar
    10     9    10   ar
    11    10    11   ar
    12     4     5    1
    13     5     1    1
    14    11     6   ar
    15    12    14    1
    16    12    15    1
