@<TRIPOS>MOLECULE
*****
 31 35 0 0 0
SMALL
GASTEIGER

@<TRIPOS>ATOM
      1 N          63.0574   90.2127   13.0094 N.3     1  UNL1       -0.2635
      2 C          66.8243   93.2686   15.4013 C.ar    1  UNL1        0.0203
      3 C          65.8286   92.2642   15.9010 C.ar    1  UNL1        0.0985
      4 N          64.9048   91.5804   14.9371 N.ar    1  UNL1       -0.2471
      5 C          64.9768   91.9009   13.4736 C.ar    1  UNL1        0.0695
      6 C          65.9725   92.9053   12.9739 C.ar    1  UNL1       -0.0073
      7 C          66.8962   93.5892   13.9378 C.ar    1  UNL1       -0.0015
      8 C          66.0445   93.2259   11.5103 C.3     1  UNL1        0.0277
      9 C          65.1208   92.5420   10.5464 C.3     1  UNL1        0.0065
     10 C          64.1250   91.5376   11.0462 C.3     1  UNL1        0.0224
     11 C          64.0531   91.2170   12.5097 C.3     1  UNL1        0.0981
     12 C          63.4079   89.3182   14.1614 C.3     1  UNL1        0.0742
     13 C          64.2666   88.1088   13.9377 C.3     1  UNL1        0.0347
     14 C          64.2357   86.9751   14.9194 C.3     1  UNL1        0.0736
     15 N          63.6532   85.6520   14.5191 N.3     1  UNL1       -0.2703
     16 C          63.2981   84.6406   15.5683 C.3     1  UNL1        0.0894
     17 C          62.7156   83.3175   15.1680 C.3     1  UNL1        0.0862
     18 N          62.4883   83.0059   13.7185 N.3     1  UNL1       -0.2951
     19 C          62.8434   84.0173   12.6692 C.3     1  UNL1        0.0862
     20 C          63.4259   85.3404   13.0695 C.3     1  UNL1        0.0894
     21 H          61.4932   82.8084   13.6123 H       1  UNL1        0.1233
     22 C          61.7111   90.1027   12.3571 C.3     1  UNL1        0.1258
     23 C          61.4842   89.0935   11.2708 C.ar    1  UNL1        0.1044
     24 N          62.4900   88.1030   10.7634 N.ar    1  UNL1       -0.2413
     25 C          61.8392   87.2950    9.6801 C.ar    1  UNL1        0.0875
     26 C          62.3467   86.1755    8.8204 C.ar    1  UNL1        0.0196
     27 C          61.4462   85.5471    7.7985 C.ar    1  UNL1        0.0016
     28 C          60.0382   86.0382    7.6364 C.ar    1  UNL1        0.0006
     29 C          59.5306   87.1578    8.4961 C.ar    1  UNL1        0.0080
     30 C          60.4311   87.7862    9.5180 C.ar    1  UNL1        0.0482
     31 S          60.2118   88.8977   10.5010 S.2     1  UNL1       -0.0694
@<TRIPOS>BOND
     1     2     3   ar
     2     3     4   ar
     3     4     5   ar
     4     5     6   ar
     5     6     7   ar
     6     6     8    1
     7     8     9    1
     8     9    10    1
     9    10    11    1
    10    11     1    1
    11     1    12    1
    12    12    13    1
    13    13    14    1
    14    14    15    1
    15    15    16    1
    16    16    17    1
    17    17    18    1
    18    18    19    1
    19    19    20    1
    20     1    22    1
    21    22    23    1
    22    23    24   ar
    23    24    25   ar
    24    25    26   ar
    25    26    27   ar
    26    27    28   ar
    27    28    29   ar
    28    29    30   ar
    29    30    31   ar
    30     7     2   ar
    31    20    15    1
    32    31    23   ar
    33    11     5    1
    34    30    25   ar
    35    18    21    1
@<TRIPOS>MOLECULE
*****
 31 35 0 0 0
SMALL
GASTEIGER

@<TRIPOS>ATOM
      1 N          63.7234   89.9130   13.4741 N.3     1  UNL1       -0.2635
      2 C          65.9958   93.9353   10.6622 C.ar    1  UNL1        0.0203
      3 C          65.0853   92.7991   10.3015 C.ar    1  UNL1        0.0985
      4 N          64.6314   91.8371   11.3590 N.ar    1  UNL1       -0.2471
      5 C          65.0879   92.0112   12.7772 C.ar    1  UNL1        0.0695
      6 C          65.9984   93.1473   13.1378 C.ar    1  UNL1       -0.0073
      7 C          66.4524   94.1094   12.0803 C.ar    1  UNL1       -0.0015
      8 C          66.4550   93.3215   14.5561 C.3     1  UNL1        0.0277
      9 C          66.0010   92.3594   15.6136 C.3     1  UNL1        0.0065
     10 C          65.0904   91.2232   15.2529 C.3     1  UNL1        0.0224
     11 C          64.6339   91.0491   13.8347 C.3     1  UNL1        0.0981
     12 C          64.2162   88.4991   13.5647 C.3     1  UNL1        0.0742
     13 C          64.0673   87.7337   14.8462 C.3     1  UNL1        0.0347
     14 C          64.6449   86.3547   14.9675 C.3     1  UNL1        0.0736
     15 N          63.8882   85.1750   14.4331 N.3     1  UNL1       -0.2703
     16 C          63.5205   85.1154   12.9800 C.3     1  UNL1        0.0894
     17 C          62.7638   83.9356   12.4456 C.3     1  UNL1        0.0862
     18 N          62.3748   82.8154   13.3642 N.3     1  UNL1       -0.2951
     19 C          62.7425   82.8750   14.8172 C.3     1  UNL1        0.0862
     20 C          63.4992   84.0547   15.3517 C.3     1  UNL1        0.0894
     21 H          62.7968   81.9663   12.9883 H       1  UNL1        0.1233
     22 C          62.3201   90.1906   13.0228 C.3     1  UNL1        0.1258
     23 C          61.7533   89.4592   11.8422 C.ar    1  UNL1        0.1044
     24 N          61.7827   87.9750   11.6274 N.ar    1  UNL1       -0.2413
     25 C          61.1052   87.6821   10.3216 C.ar    1  UNL1        0.0875
     26 C          60.8385   86.3971    9.5952 C.ar    1  UNL1        0.0196
     27 C          60.1236   86.4153    8.2767 C.ar    1  UNL1        0.0016
     28 C          59.6755   87.7185    7.6844 C.ar    1  UNL1        0.0006
     29 C          59.9423   89.0036    8.4107 C.ar    1  UNL1        0.0080
     30 C          60.6572   88.9854    9.7293 C.ar    1  UNL1        0.0482
     31 S          61.0577   90.0837   10.6691 S.2     1  UNL1       -0.0694
@<TRIPOS>BOND
     1     2     3   ar
     2     3     4   ar
     3     4     5   ar
     4     5     6   ar
     5     6     7   ar
     6     6     8    1
     7     8     9    1
     8     9    10    1
     9    10    11    1
    10    11     1    1
    11     1    12    1
    12    12    13    1
    13    13    14    1
    14    14    15    1
    15    15    16    1
    16    16    17    1
    17    17    18    1
    18    18    19    1
    19    19    20    1
    20     1    22    1
    21    22    23    1
    22    23    24   ar
    23    24    25   ar
    24    25    26   ar
    25    26    27   ar
    26    27    28   ar
    27    28    29   ar
    28    29    30   ar
    29    30    31   ar
    30     7     2   ar
    31    20    15    1
    32    31    23   ar
    33    11     5    1
    34    30    25   ar
    35    18    21    1
@<TRIPOS>MOLECULE
*****
 31 35 0 0 0
SMALL
GASTEIGER

@<TRIPOS>ATOM
      1 N          62.1620   89.3250   12.4259 N.3     1  UNL1       -0.2635
      2 C          65.8527   93.1405   11.3914 C.ar    1  UNL1        0.0203
      3 C          64.8605   92.3972   10.5471 C.ar    1  UNL1        0.0985
      4 N          63.9610   91.3731   11.1734 N.ar    1  UNL1       -0.2471
      5 C          64.0537   91.0924   12.6439 C.ar    1  UNL1        0.0695
      6 C          65.0459   91.8358   13.4882 C.ar    1  UNL1       -0.0073
      7 C          65.9454   92.8599   12.8619 C.ar    1  UNL1       -0.0015
      8 C          65.1386   91.5552   14.9589 C.3     1  UNL1        0.0277
      9 C          64.2391   90.5311   15.5851 C.3     1  UNL1        0.0065
     10 C          63.2469   89.7877   14.7408 C.3     1  UNL1        0.0224
     11 C          63.1542   90.0684   13.2702 C.3     1  UNL1        0.0981
     12 C          60.7030   89.6629   12.5105 C.3     1  UNL1        0.0742
     13 C          60.0033   90.2672   11.3292 C.3     1  UNL1        0.0347
     14 C          60.5998   90.1403    9.9587 C.3     1  UNL1        0.0736
     15 N          60.0607   89.1227    8.9975 N.3     1  UNL1       -0.2703
     16 C          59.9458   87.6859    9.4126 C.3     1  UNL1        0.0894
     17 C          59.4067   86.6683    8.4513 C.3     1  UNL1        0.0862
     18 N          58.9826   87.0876    7.0750 N.3     1  UNL1       -0.2951
     19 C          59.0975   88.5244    6.6599 C.3     1  UNL1        0.0862
     20 C          59.6365   89.5420    7.6211 C.3     1  UNL1        0.0894
     21 H          58.0001   86.8309    6.9787 H       1  UNL1        0.1233
     22 C          62.6287   88.2436   11.4970 C.3     1  UNL1        0.1258
     23 C          62.7983   86.8418   12.0030 C.ar    1  UNL1        0.1044
     24 N          63.4287   86.4446   13.3049 N.ar    1  UNL1       -0.2413
     25 C          63.3874   84.9483   13.4024 C.ar    1  UNL1        0.0875
     26 C          63.8622   83.9980   14.4614 C.ar    1  UNL1        0.0196
     27 C          63.6811   82.5203   14.2788 C.ar    1  UNL1        0.0016
     28 C          63.0252   81.9928   13.0372 C.ar    1  UNL1        0.0006
     29 C          62.5503   82.9431   11.9782 C.ar    1  UNL1        0.0080
     30 C          62.7314   84.4209   12.1608 C.ar    1  UNL1        0.0482
     31 S          62.3674   85.5911   11.2959 S.2     1  UNL1       -0.0694
@<TRIPOS>BOND
     1     2     3   ar
     2     3     4   ar
     3     4     5   ar
     4     5     6   ar
     5     6     7   ar
     6     6     8    1
     7     8     9    1
     8     9    10    1
     9    10    11    1
    10    11     1    1
    11     1    12    1
    12    12    13    1
    13    13    14    1
    14    14    15    1
    15    15    16    1
    16    16    17    1
    17    17    18    1
    18    18    19    1
    19    19    20    1
    20     1    22    1
    21    22    23    1
    22    23    24   ar
    23    24    25   ar
    24    25    26   ar
    25    26    27   ar
    26    27    28   ar
    27    28    29   ar
    28    29    30   ar
    29    30    31   ar
    30     7     2   ar
    31    20    15    1
    32    31    23   ar
    33    11     5    1
    34    30    25   ar
    35    18    21    1
@<TRIPOS>MOLECULE
*****
 31 35 0 0 0
SMALL
GASTEIGER

@<TRIPOS>ATOM
      1 N          62.6704   89.8504   12.0607 N.3     1  UNL1       -0.2635
      2 C          59.7682   87.6982    8.0364 C.ar    1  UNL1        0.0203
      3 C          60.0076   89.1007    8.5114 C.ar    1  UNL1        0.0985
      4 N          60.8952   89.3506    9.6945 N.ar    1  UNL1       -0.2471
      5 C          61.5433   88.1980   10.4026 C.ar    1  UNL1        0.0695
      6 C          61.3039   86.7955    9.9276 C.ar    1  UNL1       -0.0073
      7 C          60.4163   86.5456    8.7445 C.ar    1  UNL1       -0.0015
      8 C          61.9520   85.6429   10.6357 C.3     1  UNL1        0.0277
      9 C          62.8396   85.8928   11.8188 C.3     1  UNL1        0.0065
     10 C          63.0790   87.2953   12.2938 C.3     1  UNL1        0.0224
     11 C          62.4309   88.4479   11.5857 C.3     1  UNL1        0.0981
     12 C          62.7108   90.9797   11.0743 C.3     1  UNL1        0.0742
     13 C          64.0211   91.4202   10.4918 C.3     1  UNL1        0.0347
     14 C          64.5965   92.7545   10.8639 C.3     1  UNL1        0.0736
     15 N          65.9572   93.1484   10.3707 N.3     1  UNL1       -0.2703
     16 C          67.0594   92.1322   10.3189 C.3     1  UNL1        0.0894
     17 C          68.4201   92.5261    9.8257 C.3     1  UNL1        0.0862
     18 N          68.6787   93.9361    9.3842 N.3     1  UNL1       -0.2951
     19 C          67.5766   94.9523    9.4359 C.3     1  UNL1        0.0862
     20 C          66.2158   94.5585    9.9291 C.3     1  UNL1        0.0894
     21 H          68.9900   93.8885    8.4140 H       1  UNL1        0.1233
     22 C          62.8694   90.1236   13.5222 C.3     1  UNL1        0.1258
     23 C          64.1428   90.7557   14.0004 C.ar    1  UNL1        0.1044
     24 N          65.4413   90.7991   13.2508 N.ar    1  UNL1       -0.2413
     25 C          66.4424   91.5256   14.0993 C.ar    1  UNL1        0.0875
     26 C          67.8851   91.8703   13.8764 C.ar    1  UNL1        0.0196
     27 C          68.6481   92.6205   14.9277 C.ar    1  UNL1        0.0016
     28 C          67.9683   93.0261   16.2017 C.ar    1  UNL1        0.0006
     29 C          66.5254   92.6815   16.4246 C.ar    1  UNL1        0.0080
     30 C          65.7625   91.9312   15.3734 C.ar    1  UNL1        0.0482
     31 S          64.3413   91.4554   15.3123 S.2     1  UNL1       -0.0694
@<TRIPOS>BOND
     1     2     3   ar
     2     3     4   ar
     3     4     5   ar
     4     5     6   ar
     5     6     7   ar
     6     6     8    1
     7     8     9    1
     8     9    10    1
     9    10    11    1
    10    11     1    1
    11     1    12    1
    12    12    13    1
    13    13    14    1
    14    14    15    1
    15    15    16    1
    16    16    17    1
    17    17    18    1
    18    18    19    1
    19    19    20    1
    20     1    22    1
    21    22    23    1
    22    23    24   ar
    23    24    25   ar
    24    25    26   ar
    25    26    27   ar
    26    27    28   ar
    27    28    29   ar
    28    29    30   ar
    29    30    31   ar
    30     7     2   ar
    31    20    15    1
    32    31    23   ar
    33    11     5    1
    34    30    25   ar
    35    18    21    1
@<TRIPOS>MOLECULE
*****
 31 35 0 0 0
SMALL
GASTEIGER

@<TRIPOS>ATOM
      1 N          62.9817   85.1335   12.9506 N.3     1  UNL1       -0.2635
      2 C          61.8341   79.8802   13.5301 C.ar    1  UNL1        0.0203
      3 C          61.5749   81.0995   14.3643 C.ar    1  UNL1        0.0985
      4 N          62.0438   82.4442   13.8931 N.ar    1  UNL1       -0.2471
      5 C          62.7720   82.5695   12.5877 C.ar    1  UNL1        0.0695
      6 C          63.0312   81.3501   11.7535 C.ar    1  UNL1       -0.0073
      7 C          62.5623   80.0054   12.2248 C.ar    1  UNL1       -0.0015
      8 C          63.7594   81.4753   10.4481 C.3     1  UNL1        0.0277
      9 C          64.2283   82.8199    9.9769 C.3     1  UNL1        0.0065
     10 C          63.9691   84.0394   10.8111 C.3     1  UNL1        0.0224
     11 C          63.2409   83.9141   12.1165 C.3     1  UNL1        0.0981
     12 C          62.6380   84.9891   14.4036 C.3     1  UNL1        0.0742
     13 C          63.6747   85.2692   15.4509 C.3     1  UNL1        0.0347
     14 C          63.4565   86.3697   16.4466 C.3     1  UNL1        0.0736
     15 N          63.6383   87.8005   16.0349 N.3     1  UNL1       -0.2703
     16 C          63.0818   88.9026   16.8869 C.3     1  UNL1        0.0894
     17 C          63.2636   90.3335   16.4751 C.3     1  UNL1        0.0862
     18 N          64.0019   90.6623   15.2114 N.3     1  UNL1       -0.2951
     19 C          64.5583   89.5602   14.3595 C.3     1  UNL1        0.0862
     20 C          64.3765   88.1294   14.7712 C.3     1  UNL1        0.0894
     21 H          64.7882   91.2558   15.4757 H       1  UNL1        0.1233
     22 C          63.0661   86.4973   12.3319 C.3     1  UNL1        0.1258
     23 C          62.1644   86.8597   11.1892 C.ar    1  UNL1        0.1044
     24 N          61.3987   85.8970   10.3308 N.ar    1  UNL1       -0.2413
     25 C          60.6311   86.6906    9.3154 C.ar    1  UNL1        0.0875
     26 C          59.7046   86.2778    8.2105 C.ar    1  UNL1        0.0196
     27 C          59.0694   87.3182    7.3363 C.ar    1  UNL1        0.0016
     28 C          59.3608   88.7714    7.5671 C.ar    1  UNL1        0.0006
     29 C          60.2874   89.1842    8.6721 C.ar    1  UNL1        0.0080
     30 C          60.9226   88.1438    9.5463 C.ar    1  UNL1        0.0482
     31 S          61.8702   88.2483   10.7044 S.2     1  UNL1       -0.0694
@<TRIPOS>BOND
     1     2     3   ar
     2     3     4   ar
     3     4     5   ar
     4     5     6   ar
     5     6     7   ar
     6     6     8    1
     7     8     9    1
     8     9    10    1
     9    10    11    1
    10    11     1    1
    11     1    12    1
    12    12    13    1
    13    13    14    1
    14    14    15    1
    15    15    16    1
    16    16    17    1
    17    17    18    1
    18    18    19    1
    19    19    20    1
    20     1    22    1
    21    22    23    1
    22    23    24   ar
    23    24    25   ar
    24    25    26   ar
    25    26    27   ar
    26    27    28   ar
    27    28    29   ar
    28    29    30   ar
    29    30    31   ar
    30     7     2   ar
    31    20    15    1
    32    31    23   ar
    33    11     5    1
    34    30    25   ar
    35    18    21    1
@<TRIPOS>MOLECULE
*****
 31 35 0 0 0
SMALL
GASTEIGER

@<TRIPOS>ATOM
      1 N          62.7255   89.8505   11.9580 N.3     1  UNL1       -0.2635
      2 C          63.6158   84.6594   13.1866 C.ar    1  UNL1        0.0203
      3 C          63.9431   85.9587   13.8609 C.ar    1  UNL1        0.0985
      4 N          63.5372   87.2559   13.2266 N.ar    1  UNL1       -0.2471
      5 C          62.8041   87.2539   11.9180 C.ar    1  UNL1        0.0695
      6 C          62.4769   85.9546   11.2437 C.ar    1  UNL1       -0.0073
      7 C          62.8827   84.6574   11.8780 C.ar    1  UNL1       -0.0015
      8 C          61.7437   85.9526    9.9350 C.3     1  UNL1        0.0277
      9 C          61.3379   87.2499    9.3007 C.3     1  UNL1        0.0065
     10 C          61.6651   88.5492    9.9751 C.3     1  UNL1        0.0224
     11 C          62.3982   88.5512   11.2837 C.3     1  UNL1        0.0981
     12 C          62.7620   91.1207   11.1611 C.3     1  UNL1        0.0742
     13 C          64.0401   91.5623   10.5117 C.3     1  UNL1        0.0347
     14 C          64.6834   92.8533   10.9232 C.3     1  UNL1        0.0736
     15 N          66.0357   93.2212   10.3887 N.3     1  UNL1       -0.2703
     16 C          66.3208   94.6357    9.9788 C.3     1  UNL1        0.0894
     17 C          67.6732   95.0036    9.4443 C.3     1  UNL1        0.0862
     18 N          68.7405   93.9570    9.3197 N.3     1  UNL1       -0.2951
     19 C          68.4554   92.5426    9.7296 C.3     1  UNL1        0.0862
     20 C          67.1031   92.1747   10.2641 C.3     1  UNL1        0.0894
     21 H          69.5301   94.2733    9.8826 H       1  UNL1        0.1233
     22 C          63.0162   89.8796   13.4293 C.3     1  UNL1        0.1258
     23 C          64.2316   90.5952   13.9396 C.ar    1  UNL1        0.1044
     24 N          65.5430   90.7268   13.2234 N.ar    1  UNL1       -0.2413
     25 C          66.4710   91.5179   14.0969 C.ar    1  UNL1        0.0875
     26 C          67.8925   91.9590   13.9108 C.ar    1  UNL1        0.0196
     27 C          68.5762   92.7575   14.9809 C.ar    1  UNL1        0.0016
     28 C          67.8384   93.1149   16.2370 C.ar    1  UNL1        0.0006
     29 C          66.4168   92.6738   16.4231 C.ar    1  UNL1        0.0080
     30 C          65.7331   91.8753   15.3530 C.ar    1  UNL1        0.0482
     31 S          64.3491   91.3050   15.2558 S.2     1  UNL1       -0.0694
@<TRIPOS>BOND
     1     2     3   ar
     2     3     4   ar
     3     4     5   ar
     4     5     6   ar
     5     6     7   ar
     6     6     8    1
     7     8     9    1
     8     9    10    1
     9    10    11    1
    10    11     1    1
    11     1    12    1
    12    12    13    1
    13    13    14    1
    14    14    15    1
    15    15    16    1
    16    16    17    1
    17    17    18    1
    18    18    19    1
    19    19    20    1
    20     1    22    1
    21    22    23    1
    22    23    24   ar
    23    24    25   ar
    24    25    26   ar
    25    26    27   ar
    26    27    28   ar
    27    28    29   ar
    28    29    30   ar
    29    30    31   ar
    30     7     2   ar
    31    20    15    1
    32    31    23   ar
    33    11     5    1
    34    30    25   ar
    35    18    21    1
@<TRIPOS>MOLECULE
*****
 31 35 0 0 0
SMALL
GASTEIGER

@<TRIPOS>ATOM
      1 N          63.3415   89.8240   13.1201 N.3     1  UNL1       -0.2635
      2 C          66.8132   93.5255   14.9897 C.ar    1  UNL1        0.0203
      3 C          66.0578   92.3947   15.6226 C.ar    1  UNL1        0.0985
      4 N          65.1524   91.5378   14.7884 N.ar    1  UNL1       -0.2471
      5 C          65.0023   91.8117   13.3213 C.ar    1  UNL1        0.0695
      6 C          65.7576   92.9425   12.6884 C.ar    1  UNL1       -0.0073
      7 C          66.6631   93.7994   13.5226 C.ar    1  UNL1       -0.0015
      8 C          65.6076   93.2165   11.2212 C.3     1  UNL1        0.0277
      9 C          64.7021   92.3596   10.3871 C.3     1  UNL1        0.0065
     10 C          63.9467   91.2287   11.0201 C.3     1  UNL1        0.0224
     11 C          64.0968   90.9548   12.4872 C.3     1  UNL1        0.0981
     12 C          61.8800   89.6450   12.8336 C.3     1  UNL1        0.0742
     13 C          61.4041   89.5128   11.4172 C.3     1  UNL1        0.0347
     14 C          60.3884   88.4678   11.0617 C.3     1  UNL1        0.0736
     15 N          60.6337   87.5468    9.9035 N.3     1  UNL1       -0.2703
     16 C          61.9786   86.9068    9.7259 C.3     1  UNL1        0.0894
     17 C          62.2239   85.9857    8.5676 C.3     1  UNL1        0.0862
     18 N          61.1242   85.7048    7.5869 N.3     1  UNL1       -0.2951
     19 C          59.7793   86.3449    7.7644 C.3     1  UNL1        0.0862
     20 C          59.5340   87.2658    8.9227 C.3     1  UNL1        0.0894
     21 H          60.9736   84.6960    7.5945 H       1  UNL1        0.1233
     22 C          64.0476   88.8721   14.0396 C.3     1  UNL1        0.1258
     23 C          63.8790   87.3924   13.8607 C.ar    1  UNL1        0.1044
     24 N          63.1920   86.7157   12.7117 N.ar    1  UNL1       -0.2413
     25 C          63.2562   85.2347   12.9403 C.ar    1  UNL1        0.0875
     26 C          62.7469   84.0726   12.1403 C.ar    1  UNL1        0.0196
     27 C          62.9643   82.6717   12.6306 C.ar    1  UNL1        0.0016
     28 C          63.6910   82.4330   13.9209 C.ar    1  UNL1        0.0006
     29 C          64.2003   83.5951   14.7210 C.ar    1  UNL1        0.0080
     30 C          63.9829   84.9960   14.2307 C.ar    1  UNL1        0.0482
     31 S          64.3678   86.3295   14.7995 S.2     1  UNL1       -0.0694
@<TRIPOS>BOND
     1     2     3   ar
     2     3     4   ar
     3     4     5   ar
     4     5     6   ar
     5     6     7   ar
     6     6     8    1
     7     8     9    1
     8     9    10    1
     9    10    11    1
    10    11     1    1
    11     1    12    1
    12    12    13    1
    13    13    14    1
    14    14    15    1
    15    15    16    1
    16    16    17    1
    17    17    18    1
    18    18    19    1
    19    19    20    1
    20     1    22    1
    21    22    23    1
    22    23    24   ar
    23    24    25   ar
    24    25    26   ar
    25    26    27   ar
    26    27    28   ar
    27    28    29   ar
    28    29    30   ar
    29    30    31   ar
    30     7     2   ar
    31    20    15    1
    32    31    23   ar
    33    11     5    1
    34    30    25   ar
    35    18    21    1
@<TRIPOS>MOLECULE
*****
 31 35 0 0 0
SMALL
GASTEIGER

@<TRIPOS>ATOM
      1 N          61.6078   87.8220   11.0509 N.3     1  UNL1       -0.2635
      2 C          62.6205   84.4708    6.9285 C.ar    1  UNL1        0.0203
      3 C          63.3929   84.8856    8.1456 C.ar    1  UNL1        0.0985
      4 N          62.7979   85.8644    9.1140 N.ar    1  UNL1       -0.2471
      5 C          61.4304   86.4284    8.8654 C.ar    1  UNL1        0.0695
      6 C          60.6580   86.0137    7.6483 C.ar    1  UNL1       -0.0073
      7 C          61.2530   85.0349    6.6799 C.ar    1  UNL1       -0.0015
      8 C          59.2905   86.5777    7.3996 C.3     1  UNL1        0.0277
      9 C          58.6954   87.5565    8.3681 C.3     1  UNL1        0.0065
     10 C          59.4679   87.9713    9.5852 C.3     1  UNL1        0.0224
     11 C          60.8354   87.4072    9.8338 C.3     1  UNL1        0.0981
     12 C          62.6082   86.8846   11.6598 C.3     1  UNL1        0.0742
     13 C          62.1509   85.5931   12.2705 C.3     1  UNL1        0.0347
     14 C          63.1488   84.6653   12.8977 C.3     1  UNL1        0.0736
     15 N          62.8638   83.1944   12.9691 N.3     1  UNL1       -0.2703
     16 C          63.2096   82.3063   11.8108 C.3     1  UNL1        0.0894
     17 C          62.9245   80.8353   11.8822 C.3     1  UNL1        0.0862
     18 N          62.2936   80.2525   13.1119 N.3     1  UNL1       -0.2951
     19 C          61.9477   81.1406   14.2702 C.3     1  UNL1        0.0862
     20 C          62.2328   82.6115   14.1988 C.3     1  UNL1        0.0894
     21 H          62.9370   79.5445   13.4656 H       1  UNL1        0.1233
     22 C          61.3799   89.1741   11.6592 C.3     1  UNL1        0.1258
     23 C          62.5356   89.9490   12.2192 C.ar    1  UNL1        0.1044
     24 N          63.0870   89.8288   13.6091 N.ar    1  UNL1       -0.2413
     25 C          64.2351   90.7857   13.7367 C.ar    1  UNL1        0.0875
     26 C          65.1569   91.1010   14.8771 C.ar    1  UNL1        0.0196
     27 C          66.2369   92.1279   14.7067 C.ar    1  UNL1        0.0016
     28 C          66.3951   92.8395   13.3958 C.ar    1  UNL1        0.0006
     29 C          65.4733   92.5242   12.2552 C.ar    1  UNL1        0.0080
     30 C          64.3932   91.4973   12.4256 C.ar    1  UNL1        0.0482
     31 S          63.3429   90.9801   11.4879 S.2     1  UNL1       -0.0694
@<TRIPOS>BOND
     1     2     3   ar
     2     3     4   ar
     3     4     5   ar
     4     5     6   ar
     5     6     7   ar
     6     6     8    1
     7     8     9    1
     8     9    10    1
     9    10    11    1
    10    11     1    1
    11     1    12    1
    12    12    13    1
    13    13    14    1
    14    14    15    1
    15    15    16    1
    16    16    17    1
    17    17    18    1
    18    18    19    1
    19    19    20    1
    20     1    22    1
    21    22    23    1
    22    23    24   ar
    23    24    25   ar
    24    25    26   ar
    25    26    27   ar
    26    27    28   ar
    27    28    29   ar
    28    29    30   ar
    29    30    31   ar
    30     7     2   ar
    31    20    15    1
    32    31    23   ar
    33    11     5    1
    34    30    25   ar
    35    18    21    1
@<TRIPOS>MOLECULE
*****
 31 35 0 0 0
SMALL
GASTEIGER

@<TRIPOS>ATOM
      1 N          62.9284   89.0345   12.9917 N.3     1  UNL1       -0.2635
      2 C          61.5019   85.4099    9.2397 C.ar    1  UNL1        0.0203
      3 C          62.3960   85.3641   10.4433 C.ar    1  UNL1        0.0985
      4 N          62.5735   86.5876   11.2927 N.ar    1  UNL1       -0.2471
      5 C          61.8569   87.8568   10.9387 C.ar    1  UNL1        0.0695
      6 C          60.9628   87.9026    9.7352 C.ar    1  UNL1       -0.0073
      7 C          60.7853   86.6792    8.8857 C.ar    1  UNL1       -0.0015
      8 C          60.2462   89.1720    9.3811 C.3     1  UNL1        0.0277
      9 C          60.4236   90.3954   10.2306 C.3     1  UNL1        0.0065
     10 C          61.3178   90.3496   11.4342 C.3     1  UNL1        0.0224
     11 C          62.0344   89.0803   11.7882 C.3     1  UNL1        0.0981
     12 C          63.7717   87.8220   13.2539 C.3     1  UNL1        0.0742
     13 C          64.2043   87.4975   14.6531 C.3     1  UNL1        0.0347
     14 C          64.8098   86.1599   14.9597 C.3     1  UNL1        0.0736
     15 N          64.1041   84.9038   14.5426 N.3     1  UNL1       -0.2703
     16 C          62.9222   84.4125   15.3247 C.3     1  UNL1        0.0894
     17 C          62.2165   83.1562   14.9076 C.3     1  UNL1        0.0862
     18 N          62.6927   82.3914   13.7084 N.3     1  UNL1       -0.2951
     19 C          63.8746   82.8827   12.9262 C.3     1  UNL1        0.0862
     20 C          64.5803   84.1388   13.3433 C.3     1  UNL1        0.0894
     21 H          61.9081   82.3448   13.0582 H       1  UNL1        0.1233
     22 C          62.9793   90.2012   13.9331 C.3     1  UNL1        0.1258
     23 C          64.2942   90.8453   14.2590 C.ar    1  UNL1        0.1044
     24 N          65.4999   90.8879   13.3678 N.ar    1  UNL1       -0.2413
     25 C          66.5852   91.6287   14.0913 C.ar    1  UNL1        0.0875
     26 C          67.9914   91.9789   13.7044 C.ar    1  UNL1        0.0196
     27 C          68.8626   92.7442   14.6558 C.ar    1  UNL1        0.0016
     28 C          68.3276   93.1594   15.9942 C.ar    1  UNL1        0.0006
     29 C          66.9213   92.8093   16.3812 C.ar    1  UNL1        0.0080
     30 C          66.0500   92.0439   15.4297 C.ar    1  UNL1        0.0482
     31 S          64.6341   91.5597   15.5334 S.2     1  UNL1       -0.0694
@<TRIPOS>BOND
     1     2     3   ar
     2     3     4   ar
     3     4     5   ar
     4     5     6   ar
     5     6     7   ar
     6     6     8    1
     7     8     9    1
     8     9    10    1
     9    10    11    1
    10    11     1    1
    11     1    12    1
    12    12    13    1
    13    13    14    1
    14    14    15    1
    15    15    16    1
    16    16    17    1
    17    17    18    1
    18    18    19    1
    19    19    20    1
    20     1    22    1
    21    22    23    1
    22    23    24   ar
    23    24    25   ar
    24    25    26   ar
    25    26    27   ar
    26    27    28   ar
    27    28    29   ar
    28    29    30   ar
    29    30    31   ar
    30     7     2   ar
    31    20    15    1
    32    31    23   ar
    33    11     5    1
    34    30    25   ar
    35    18    21    1
