@<TRIPOS>MOLECULE
*****
 47 51 0 0 0
SMALL
GASTEIGER

@<TRIPOS>ATOM
      1 C          61.6999   90.1263   10.8142 C.3     1  UNL1        0.1484
      2 O          60.8830   91.1272   11.5763 O.3     1  UNL1       -0.3810
      3 H          61.4712   91.6912   12.1025 H       1  UNL1        0.2105
      4 C          63.1940   90.1205   10.9472 C.3     1  UNL1        0.1245
      5 C          64.3468   91.2859   12.9628 C.2     1  UNL1        0.2492
      6 O          65.0524   92.4738   13.5468 O.2     1  UNL1       -0.2699
      7 N          63.8996   91.3084   11.5312 N.am    1  UNL1       -0.2735
      8 C          63.5327   85.2851   14.9837 C.ar    1  UNL1        0.2924
      9 N          63.3607   86.2880   16.0858 N.ar    1  UNL1       -0.1946
     10 C          63.5718   87.6551   15.5056 C.ar    1  UNL1        0.1202
     11 C          63.5276   89.0234   16.1187 C.ar    1  UNL1        0.0225
     12 C          63.7860   90.2336   15.2710 C.ar    1  UNL1        0.0063
     13 C          64.0885   90.0756   13.8104 C.ar    1  UNL1        0.0567
     14 C          64.1326   88.7073   13.1973 C.ar    1  UNL1        0.0437
     15 C          63.8743   87.4971   14.0450 C.ar    1  UNL1        0.1662
     16 O          63.8501   86.0324   13.7224 O.2     1  UNL1       -0.4237
     17 N          63.4090   83.7964   15.1191 N.pl3   1  UNL1       -0.2619
     18 C          64.6355   82.9574   15.3234 C.3     1  UNL1        0.1166
     19 C          61.8812   81.8649   14.2916 C.3     1  UNL1        0.0233
     20 C          62.0589   83.1466   15.0503 C.3     1  UNL1        0.0952
     21 C          64.1580   92.5187   10.6836 C.3     1  UNL1        0.0937
     22 C          65.5268   93.1311   10.6479 C.3     1  UNL1        0.0199
     23 C          65.6925   94.6092   10.8420 C.3     1  UNL1        0.0018
     24 C          66.7300   92.2652   10.4183 C.3     1  UNL1        0.0018
     25 C          61.0227   89.1313    9.9191 C.3     1  UNL1        0.1075
     26 N          60.6937   89.4989    8.5025 N.am    1  UNL1       -0.2695
     27 C          59.5993   88.7759    7.7748 C.2     1  UNL1        0.4020
     28 O          58.8338   87.6853    8.4637 O.2     1  UNL1       -0.2264
     29 H          61.1961   90.2147    8.0503 H       1  UNL1        0.1528
     30 O          59.2703   89.1436    6.3582 O.3     1  UNL1       -0.4297
     31 C          58.9471   90.5659    6.0082 C.3     1  UNL1        0.2368
     32 C          59.7187   91.2667    4.9297 C.ar    1  UNL1        0.0245
     33 C          59.0351   92.2717    4.0506 C.ar    1  UNL1        0.0026
     34 C          59.8069   92.9726    2.9720 C.ar    1  UNL1        0.0400
     35 C          61.2621   92.6685    2.7726 C.ar    1  UNL1        0.1764
     36 C          61.9456   91.6635    3.6516 C.ar    1  UNL1        0.1762
     37 C          61.1740   90.9627    4.7302 C.ar    1  UNL1        0.0395
     38 O          63.3797   91.5709    3.2215 O.3     1  UNL1       -0.4346
     39 C          63.5824   92.5185    2.0766 C.3     1  UNL1        0.4294
     40 O          62.2737   93.1969    1.7992 O.3     1  UNL1       -0.4346
     41 C          60.6745   87.7686   10.4404 C.3     1  UNL1        0.0485
     42 C          61.5889   86.6089   10.1777 C.ar    1  UNL1       -0.0204
     43 C          62.2506   86.4637    8.8395 C.ar    1  UNL1       -0.0042
     44 C          63.1650   85.3040    8.5767 C.ar    1  UNL1       -0.0003
     45 C          63.4175   84.2894    9.6523 C.ar    1  UNL1       -0.0000
     46 C          62.7557   84.4346   10.9905 C.ar    1  UNL1       -0.0003
     47 C          61.8414   85.5943   11.2532 C.ar    1  UNL1       -0.0042
@<TRIPOS>BOND
     1    19    20    1
     2    20    17    1
     3    17    18    1
     4    17     8    1
     5     8     9   ar
     6     9    10   ar
     7    10    11   ar
     8    11    12   ar
     9    12    13   ar
    10    13     5    1
    11     5     6    2
    12     5     7   am
    13     7    21    1
    14    21    22    1
    15    22    23    1
    16    22    24    1
    17     7     4    1
    18     4     1    1
    19     1     2    1
    20     1    25    1
    21    25    41    1
    22    41    42    1
    23    42    43   ar
    24    43    44   ar
    25    44    45   ar
    26    45    46   ar
    27    46    47   ar
    28    25    26    1
    29    26    27   am
    30    27    28    2
    31    27    30    1
    32    30    31    1
    33    31    32    1
    34    32    33   ar
    35    33    34   ar
    36    34    35   ar
    37    35    36   ar
    38    36    37   ar
    39    36    38    1
    40    38    39    1
    41    39    40    1
    42    13    14   ar
    43    14    15   ar
    44    15    16   ar
    45    16     8   ar
    46    15    10   ar
    47    47    42   ar
    48    37    32   ar
    49    40    35    1
    50     2     3    1
    51    26    29    1
@<TRIPOS>MOLECULE
*****
 47 51 0 0 0
SMALL
GASTEIGER

@<TRIPOS>ATOM
      1 C          62.7751   85.8188   11.9944 C.3     1  UNL1        0.1484
      2 O          61.9073   84.6809   11.5449 O.3     1  UNL1       -0.3810
      3 H          61.4229   84.9399   10.7454 H       1  UNL1        0.2105
      4 C          62.7866   87.1041   11.2212 C.3     1  UNL1        0.1245
      5 C          61.2944   89.0769   10.4266 C.2     1  UNL1        0.2492
      6 O          60.0352   89.5755    9.7818 O.2     1  UNL1       -0.2699
      7 N          61.5274   87.6027   10.5764 N.am    1  UNL1       -0.2735
      8 C          65.7266   93.6593   10.7642 C.ar    1  UNL1        0.2924
      9 N          65.4186   93.0617   12.1051 N.ar    1  UNL1       -0.1946
     10 C          64.3729   92.0038   11.9120 C.ar    1  UNL1        0.1202
     11 C          63.6850   91.0844   12.8771 C.ar    1  UNL1        0.0225
     12 C          62.6589   90.1088   12.3820 C.ar    1  UNL1        0.0063
     13 C          62.3206   90.0526   10.9217 C.ar    1  UNL1        0.0567
     14 C          63.0084   90.9720    9.9566 C.ar    1  UNL1        0.0437
     15 C          64.0346   91.9476   10.4517 C.ar    1  UNL1        0.1662
     16 O          64.8712   92.9708    9.7424 O.2     1  UNL1       -0.4237
     17 N          66.7162   94.7534   10.4928 N.pl3   1  UNL1       -0.2619
     18 C          66.5657   96.0849   11.1669 C.3     1  UNL1        0.1166
     19 C          68.3368   93.1190    9.2878 C.3     1  UNL1        0.0233
     20 C          67.8562   94.5160    9.5474 C.3     1  UNL1        0.0952
     21 C          60.5012   86.6271   10.0813 C.3     1  UNL1        0.0937
     22 C          60.3981   86.3263    8.6154 C.3     1  UNL1        0.0199
     23 C          59.1724   86.7304    7.8511 C.3     1  UNL1        0.0018
     24 C          61.5210   85.6213    7.9136 C.3     1  UNL1        0.0018
     25 C          63.6314   85.6713   13.2171 C.3     1  UNL1        0.1075
     26 N          63.8121   86.8316   14.1505 N.am    1  UNL1       -0.2695
     27 C          63.2910   86.7526   15.5548 C.2     1  UNL1        0.4020
     28 O          62.5892   85.5134   16.0258 O.2     1  UNL1       -0.2264
     29 H          64.2728   87.6449   13.8414 H       1  UNL1        0.1528
     30 O          63.4717   87.9128   16.4883 O.3     1  UNL1       -0.4297
     31 C          63.0840   89.2944   16.0513 C.3     1  UNL1        0.2368
     32 C          64.1224   90.3736   15.9676 C.ar    1  UNL1        0.0245
     33 C          63.9730   91.6231   16.7839 C.ar    1  UNL1        0.0026
     34 C          65.0115   92.7023   16.7001 C.ar    1  UNL1        0.0400
     35 C          66.1992   92.5320   15.8001 C.ar    1  UNL1        0.1764
     36 C          66.3486   91.2824   14.9837 C.ar    1  UNL1        0.1762
     37 C          65.3102   90.2033   15.0675 C.ar    1  UNL1        0.0395
     38 O          67.6172   91.3954   14.1913 O.3     1  UNL1       -0.4346
     39 C          68.2518   92.7147   14.5178 C.3     1  UNL1        0.4294
     40 O          67.3755   93.4171   15.5121 O.3     1  UNL1       -0.4346
     41 C          64.3071   84.3637   13.5063 C.3     1  UNL1        0.0485
     42 C          63.5278   83.0842   13.4318 C.ar    1  UNL1       -0.0204
     43 C          63.8189   82.0909   12.3462 C.ar    1  UNL1       -0.0042
     44 C          63.0396   80.8114   12.2717 C.ar    1  UNL1       -0.0003
     45 C          61.9692   80.5252   13.2827 C.ar    1  UNL1       -0.0000
     46 C          61.6781   81.5185   14.3683 C.ar    1  UNL1       -0.0003
     47 C          62.4574   82.7980   14.4428 C.ar    1  UNL1       -0.0042
@<TRIPOS>BOND
     1    19    20    1
     2    20    17    1
     3    17    18    1
     4    17     8    1
     5     8     9   ar
     6     9    10   ar
     7    10    11   ar
     8    11    12   ar
     9    12    13   ar
    10    13     5    1
    11     5     6    2
    12     5     7   am
    13     7    21    1
    14    21    22    1
    15    22    23    1
    16    22    24    1
    17     7     4    1
    18     4     1    1
    19     1     2    1
    20     1    25    1
    21    25    41    1
    22    41    42    1
    23    42    43   ar
    24    43    44   ar
    25    44    45   ar
    26    45    46   ar
    27    46    47   ar
    28    25    26    1
    29    26    27   am
    30    27    28    2
    31    27    30    1
    32    30    31    1
    33    31    32    1
    34    32    33   ar
    35    33    34   ar
    36    34    35   ar
    37    35    36   ar
    38    36    37   ar
    39    36    38    1
    40    38    39    1
    41    39    40    1
    42    13    14   ar
    43    14    15   ar
    44    15    16   ar
    45    16     8   ar
    46    15    10   ar
    47    47    42   ar
    48    37    32   ar
    49    40    35    1
    50     2     3    1
    51    26    29    1
@<TRIPOS>MOLECULE
*****
 47 51 0 0 0
SMALL
GASTEIGER

@<TRIPOS>ATOM
      1 C          62.8346   89.4761   12.9813 C.3     1  UNL1        0.1484
      2 O          61.6129   89.9398   13.7177 O.3     1  UNL1       -0.3810
      3 H          60.8545   89.9479   13.1130 H       1  UNL1        0.2105
      4 C          62.7423   89.1137   11.5287 C.3     1  UNL1        0.1245
      5 C          60.8507   87.8863   10.2382 C.2     1  UNL1        0.2492
      6 O          59.5231   87.9160    9.5407 O.2     1  UNL1       -0.2699
      7 N          61.4147   89.1434   10.8312 N.am    1  UNL1       -0.2735
      8 C          63.3698   82.4142   12.3518 C.ar    1  UNL1        0.2924
      9 N          63.7853   82.7294   10.9454 N.ar    1  UNL1       -0.1946
     10 C          63.1418   84.0259   10.5515 C.ar    1  UNL1        0.1202
     11 C          63.1913   84.8266    9.2841 C.ar    1  UNL1        0.0225
     12 C          62.4277   86.1134    9.1797 C.ar    1  UNL1        0.0063
     13 C          61.6145   86.5994   10.3427 C.ar    1  UNL1        0.0567
     14 C          61.5649   85.7987   11.6100 C.ar    1  UNL1        0.0437
     15 C          62.3286   84.5119   11.7145 C.ar    1  UNL1        0.1662
     16 O          62.4695   83.5158   12.8271 O.2     1  UNL1       -0.4237
     17 N          63.7821   81.2089   13.1439 N.pl3   1  UNL1       -0.2619
     18 C          65.1925   81.0832   13.6387 C.3     1  UNL1        0.1166
     19 C          61.3894   80.4914   13.8582 C.3     1  UNL1        0.0233
     20 C          62.7840   80.1294   13.4411 C.3     1  UNL1        0.0952
     21 C          60.6510   90.4302   10.7267 C.3     1  UNL1        0.0937
     22 C          59.3934   90.6226   11.5213 C.3     1  UNL1        0.0199
     23 C          58.6856   91.9449   11.4968 C.3     1  UNL1        0.0018
     24 C          58.8435   89.4926   12.3405 C.3     1  UNL1        0.0018
     25 C          64.1486   89.3747   13.6976 C.3     1  UNL1        0.1075
     26 N          65.0012   90.5958   13.8768 N.am    1  UNL1       -0.2695
     27 C          64.6371   91.6196   14.9108 C.2     1  UNL1        0.4020
     28 O          63.4203   91.4224   15.7656 O.2     1  UNL1       -0.2264
     29 H          65.7998   90.7253   13.3158 H       1  UNL1        0.1528
     30 O          65.4897   92.8407   15.0901 O.3     1  UNL1       -0.4297
     31 C          66.7932   92.9595   14.3576 C.3     1  UNL1        0.2368
     32 C          66.8063   93.3422   12.9073 C.ar    1  UNL1        0.0245
     33 C          67.2261   92.3419   11.8714 C.ar    1  UNL1        0.0026
     34 C          67.2392   92.7247   10.4211 C.ar    1  UNL1        0.0400
     35 C          66.8326   94.1078   10.0067 C.ar    1  UNL1        0.1764
     36 C          66.4128   95.1081   11.0427 C.ar    1  UNL1        0.1762
     37 C          66.3997   94.7254   12.4929 C.ar    1  UNL1        0.0395
     38 O          66.0671   96.3869   10.3389 O.3     1  UNL1       -0.4346
     39 C          66.2731   96.1769    8.8681 C.3     1  UNL1        0.4294
     40 O          66.7462   94.7683    8.6628 O.3     1  UNL1       -0.4346
     41 C          64.6101   88.0524   14.2345 C.3     1  UNL1        0.0485
     42 C          63.9057   87.4306   15.4038 C.ar    1  UNL1       -0.0204
     43 C          63.3968   88.2950   16.5190 C.ar    1  UNL1       -0.0042
     44 C          62.6924   87.6732   17.6883 C.ar    1  UNL1       -0.0003
     45 C          62.4969   86.1870   17.7424 C.ar    1  UNL1       -0.0000
     46 C          63.0059   85.3226   16.6271 C.ar    1  UNL1       -0.0003
     47 C          63.7103   85.9444   15.4579 C.ar    1  UNL1       -0.0042
@<TRIPOS>BOND
     1    19    20    1
     2    20    17    1
     3    17    18    1
     4    17     8    1
     5     8     9   ar
     6     9    10   ar
     7    10    11   ar
     8    11    12   ar
     9    12    13   ar
    10    13     5    1
    11     5     6    2
    12     5     7   am
    13     7    21    1
    14    21    22    1
    15    22    23    1
    16    22    24    1
    17     7     4    1
    18     4     1    1
    19     1     2    1
    20     1    25    1
    21    25    41    1
    22    41    42    1
    23    42    43   ar
    24    43    44   ar
    25    44    45   ar
    26    45    46   ar
    27    46    47   ar
    28    25    26    1
    29    26    27   am
    30    27    28    2
    31    27    30    1
    32    30    31    1
    33    31    32    1
    34    32    33   ar
    35    33    34   ar
    36    34    35   ar
    37    35    36   ar
    38    36    37   ar
    39    36    38    1
    40    38    39    1
    41    39    40    1
    42    13    14   ar
    43    14    15   ar
    44    15    16   ar
    45    16     8   ar
    46    15    10   ar
    47    47    42   ar
    48    37    32   ar
    49    40    35    1
    50     2     3    1
    51    26    29    1
@<TRIPOS>MOLECULE
*****
 47 51 0 0 0
SMALL
GASTEIGER

@<TRIPOS>ATOM
      1 C          60.8089   89.3760   11.0020 C.3     1  UNL1        0.1484
      2 O          60.0368   90.5331   11.5632 O.3     1  UNL1       -0.3810
      3 H          60.3830   90.7574   12.4411 H       1  UNL1        0.2105
      4 C          61.9231   88.7618   11.7966 C.3     1  UNL1        0.1245
      5 C          63.8850   89.0471   13.4757 C.2     1  UNL1        0.2492
      6 O          64.8844   89.9251   14.1687 O.2     1  UNL1       -0.2699
      7 N          62.9225   89.6397   12.4896 N.am    1  UNL1       -0.2735
      8 C          63.1017   82.7282   13.0132 C.ar    1  UNL1        0.2924
      9 N          63.6285   83.1424   14.3552 N.ar    1  UNL1       -0.1946
     10 C          63.7740   84.6354   14.3554 C.ar    1  UNL1        0.1202
     11 C          64.2478   85.5975   15.4040 C.ar    1  UNL1        0.0225
     12 C          64.2848   87.0681   15.1108 C.ar    1  UNL1        0.0063
     13 C          63.8480   87.5765   13.7689 C.ar    1  UNL1        0.0567
     14 C          63.3742   86.6144   12.7203 C.ar    1  UNL1        0.0437
     15 C          63.3372   85.1438   13.0135 C.ar    1  UNL1        0.1662
     16 O          62.9217   83.9651   12.1840 O.2     1  UNL1       -0.4237
     17 N          62.8068   81.3236   12.5770 N.pl3   1  UNL1       -0.2619
     18 C          63.1338   80.8880   11.1794 C.3     1  UNL1        0.1166
     19 C          60.8736   80.6811   14.1894 C.3     1  UNL1        0.0233
     20 C          62.1850   80.3546   13.5385 C.3     1  UNL1        0.0952
     21 C          62.9595   91.1104   12.1964 C.3     1  UNL1        0.0937
     22 C          63.8786   91.6409   11.1362 C.3     1  UNL1        0.0199
     23 C          65.1733   92.2920   11.5232 C.3     1  UNL1        0.0018
     24 C          63.5029   91.5202    9.6890 C.3     1  UNL1        0.0018
     25 C          60.4668   88.8331    9.6462 C.3     1  UNL1        0.1075
     26 N          60.5168   89.7298    8.4447 N.am    1  UNL1       -0.2695
     27 C          59.5213   89.5550    7.3364 C.2     1  UNL1        0.4020
     28 O          58.4757   88.4835    7.4296 O.2     1  UNL1       -0.2264
     29 H          61.2030   90.4331    8.3836 H       1  UNL1        0.1528
     30 O          59.5712   90.4518    6.1350 O.3     1  UNL1       -0.4297
     31 C          60.7935   90.4738    5.2659 C.3     1  UNL1        0.2368
     32 C          60.9077   91.4780    4.1575 C.ar    1  UNL1        0.0245
     33 C          59.7397   92.3556    3.8174 C.ar    1  UNL1        0.0026
     34 C          59.8539   93.3599    2.7090 C.ar    1  UNL1        0.0400
     35 C          61.1360   93.4865    1.9408 C.ar    1  UNL1        0.1764
     36 C          62.3039   92.6089    2.2809 C.ar    1  UNL1        0.1762
     37 C          62.1898   91.6047    3.3893 C.ar    1  UNL1        0.0395
     38 O          63.4315   92.9587    1.3556 O.3     1  UNL1       -0.4346
     39 C          62.9605   94.0525    0.4436 C.3     1  UNL1        0.4294
     40 O          61.5418   94.3787    0.8052 O.3     1  UNL1       -0.4346
     41 C          60.0748   87.3935    9.4918 C.3     1  UNL1        0.0485
     42 C          60.9545   86.4553    8.7198 C.ar    1  UNL1       -0.0204
     43 C          62.3432   86.1600    9.2038 C.ar    1  UNL1       -0.0042
     44 C          63.2229   85.2218    8.4318 C.ar    1  UNL1       -0.0003
     45 C          62.7138   84.5789    7.1759 C.ar    1  UNL1       -0.0000
     46 C          61.3252   84.8741    6.6919 C.ar    1  UNL1       -0.0003
     47 C          60.4455   85.8124    7.4638 C.ar    1  UNL1       -0.0042
@<TRIPOS>BOND
     1    19    20    1
     2    20    17    1
     3    17    18    1
     4    17     8    1
     5     8     9   ar
     6     9    10   ar
     7    10    11   ar
     8    11    12   ar
     9    12    13   ar
    10    13     5    1
    11     5     6    2
    12     5     7   am
    13     7    21    1
    14    21    22    1
    15    22    23    1
    16    22    24    1
    17     7     4    1
    18     4     1    1
    19     1     2    1
    20     1    25    1
    21    25    41    1
    22    41    42    1
    23    42    43   ar
    24    43    44   ar
    25    44    45   ar
    26    45    46   ar
    27    46    47   ar
    28    25    26    1
    29    26    27   am
    30    27    28    2
    31    27    30    1
    32    30    31    1
    33    31    32    1
    34    32    33   ar
    35    33    34   ar
    36    34    35   ar
    37    35    36   ar
    38    36    37   ar
    39    36    38    1
    40    38    39    1
    41    39    40    1
    42    13    14   ar
    43    14    15   ar
    44    15    16   ar
    45    16     8   ar
    46    15    10   ar
    47    47    42   ar
    48    37    32   ar
    49    40    35    1
    50     2     3    1
    51    26    29    1
@<TRIPOS>MOLECULE
*****
 47 51 0 0 0
SMALL
GASTEIGER

@<TRIPOS>ATOM
      1 C          62.6376   86.7205   10.8954 C.3     1  UNL1        0.1484
      2 O          62.6776   86.9453   12.3779 O.3     1  UNL1       -0.3810
      3 H          62.4900   87.8777   12.5687 H       1  UNL1        0.2105
      4 C          62.3390   87.8637    9.9712 C.3     1  UNL1        0.1245
      5 C          61.0006   89.9949   10.6169 C.2     1  UNL1        0.2492
      6 O          59.6953   90.7259   10.7255 O.2     1  UNL1       -0.2699
      7 N          61.0336   88.5947   10.0799 N.am    1  UNL1       -0.2735
      8 C          65.9182   92.1699   14.0582 C.ar    1  UNL1        0.2924
      9 N          66.0140   92.5609   12.6132 N.ar    1  UNL1       -0.1946
     10 C          64.8174   92.0027   11.9016 C.ar    1  UNL1        0.1202
     11 C          64.3806   92.0694   10.4682 C.ar    1  UNL1        0.0225
     12 C          63.1083   91.4002   10.0400 C.ar    1  UNL1        0.0063
     13 C          62.2729   90.6642   11.0452 C.ar    1  UNL1        0.0567
     14 C          62.7098   90.5974   12.4785 C.ar    1  UNL1        0.0437
     15 C          63.9820   91.2666   12.9068 C.ar    1  UNL1        0.1662
     16 O          64.6624   91.3700   14.2396 O.2     1  UNL1       -0.4237
     17 N          66.9050   92.5178   15.1330 N.pl3   1  UNL1       -0.2619
     18 C          66.4538   92.6239   16.5596 C.3     1  UNL1        0.1166
     19 C          69.2418   93.4726   15.7476 C.3     1  UNL1        0.0233
     20 C          68.3430   92.7595   14.7813 C.3     1  UNL1        0.0952
     21 C          59.7613   87.9254    9.6516 C.3     1  UNL1        0.0937
     22 C          59.3050   88.0242    8.2261 C.3     1  UNL1        0.0199
     23 C          59.7564   89.1716    7.3719 C.3     1  UNL1        0.0018
     24 C          58.3972   86.9755    7.6549 C.3     1  UNL1        0.0018
     25 C          62.8962   85.3526   10.3370 C.3     1  UNL1        0.1075
     26 N          62.5055   84.1357   11.1224 N.am    1  UNL1       -0.2695
     27 C          63.4674   82.9935   11.2636 C.2     1  UNL1        0.4020
     28 O          64.8200   83.0680   10.6196 O.2     1  UNL1       -0.2264
     29 H          61.6177   84.0868   11.5451 H       1  UNL1        0.1528
     30 O          63.0767   81.7767   12.0490 O.3     1  UNL1       -0.4297
     31 C          63.1732   81.7872   13.5458 C.3     1  UNL1        0.2368
     32 C          63.3692   83.0829   14.2756 C.ar    1  UNL1        0.0245
     33 C          64.5997   83.9044   14.0282 C.ar    1  UNL1        0.0026
     34 C          64.7957   85.2002   14.7580 C.ar    1  UNL1        0.0400
     35 C          63.7612   85.6745   15.7352 C.ar    1  UNL1        0.1764
     36 C          62.5307   84.8531   15.9826 C.ar    1  UNL1        0.1762
     37 C          62.3347   83.5573   15.2528 C.ar    1  UNL1        0.0395
     38 O          61.6901   85.5712   16.9963 O.3     1  UNL1       -0.4346
     39 C          62.4010   86.8365   17.3754 C.3     1  UNL1        0.4294
     40 O          63.6810   86.9003   16.5960 O.3     1  UNL1       -0.4346
     41 C          63.5455   85.2014    8.9933 C.3     1  UNL1        0.0485
     42 C          62.7062   84.9214    7.7820 C.ar    1  UNL1       -0.0204
     43 C          61.2151   85.0678    7.8526 C.ar    1  UNL1       -0.0042
     44 C          60.3758   84.7878    6.6413 C.ar    1  UNL1       -0.0003
     45 C          61.0277   84.3613    5.3595 C.ar    1  UNL1       -0.0000
     46 C          62.5188   84.2149    5.2889 C.ar    1  UNL1       -0.0003
     47 C          63.3581   84.4949    6.5002 C.ar    1  UNL1       -0.0042
@<TRIPOS>BOND
     1    19    20    1
     2    20    17    1
     3    17    18    1
     4    17     8    1
     5     8     9   ar
     6     9    10   ar
     7    10    11   ar
     8    11    12   ar
     9    12    13   ar
    10    13     5    1
    11     5     6    2
    12     5     7   am
    13     7    21    1
    14    21    22    1
    15    22    23    1
    16    22    24    1
    17     7     4    1
    18     4     1    1
    19     1     2    1
    20     1    25    1
    21    25    41    1
    22    41    42    1
    23    42    43   ar
    24    43    44   ar
    25    44    45   ar
    26    45    46   ar
    27    46    47   ar
    28    25    26    1
    29    26    27   am
    30    27    28    2
    31    27    30    1
    32    30    31    1
    33    31    32    1
    34    32    33   ar
    35    33    34   ar
    36    34    35   ar
    37    35    36   ar
    38    36    37   ar
    39    36    38    1
    40    38    39    1
    41    39    40    1
    42    13    14   ar
    43    14    15   ar
    44    15    16   ar
    45    16     8   ar
    46    15    10   ar
    47    47    42   ar
    48    37    32   ar
    49    40    35    1
    50     2     3    1
    51    26    29    1
@<TRIPOS>MOLECULE
*****
 47 51 0 0 0
SMALL
GASTEIGER

@<TRIPOS>ATOM
      1 C          62.3924   85.3868   11.4934 C.3     1  UNL1        0.1484
      2 O          63.1814   84.7130   10.4102 O.3     1  UNL1       -0.3810
      3 H          63.3064   83.7778   10.6352 H       1  UNL1        0.2105
      4 C          61.9338   84.6016   12.6864 C.3     1  UNL1        0.1245
      5 C          63.6214   83.8564   14.5159 C.2     1  UNL1        0.2492
      6 O          64.5130   82.8071   15.1109 O.2     1  UNL1       -0.2699
      7 N          62.8254   83.5522   13.2814 N.am    1  UNL1       -0.2735
      8 C          64.2861   90.0675   15.8342 C.ar    1  UNL1        0.2924
      9 N          63.4236   89.3592   16.8364 N.ar    1  UNL1       -0.1946
     10 C          63.3346   87.9168   16.4344 C.ar    1  UNL1        0.1202
     11 C          62.6227   86.7466   17.0456 C.ar    1  UNL1        0.0225
     12 C          62.7183   85.3932   16.4061 C.ar    1  UNL1        0.0063
     13 C          63.5258   85.2099   15.1554 C.ar    1  UNL1        0.0567
     14 C          64.2378   86.3802   14.5442 C.ar    1  UNL1        0.0437
     15 C          64.1422   87.7336   15.1837 C.ar    1  UNL1        0.1662
     16 O          64.7302   89.0628   14.8127 O.2     1  UNL1       -0.4237
     17 N          64.6420   91.5245   15.8505 N.pl3   1  UNL1       -0.2619
     18 C          64.0557   92.4281   16.8944 C.3     1  UNL1        0.1166
     19 C          67.0347   91.6973   14.8530 C.3     1  UNL1        0.0233
     20 C          65.5841   92.0780   14.8229 C.3     1  UNL1        0.0952
     21 C          62.9210   82.1987   12.6419 C.3     1  UNL1        0.0937
     22 C          62.2074   81.0289   13.2521 C.3     1  UNL1        0.0199
     23 C          62.5978   79.6312   12.8728 C.3     1  UNL1        0.0018
     24 C          61.1032   81.2569   14.2416 C.3     1  UNL1        0.0018
     25 C          62.0619   86.8458   11.3837 C.3     1  UNL1        0.1075
     26 N          63.1460   87.8730   11.5245 N.am    1  UNL1       -0.2695
     27 C          62.8276   89.2275   12.0849 C.2     1  UNL1        0.4020
     28 O          61.4252   89.5547   12.5047 O.2     1  UNL1       -0.2264
     29 H          64.0664   87.6582   11.2490 H       1  UNL1        0.1528
     30 O          63.9117   90.2547   12.2257 O.3     1  UNL1       -0.4297
     31 C          63.7775   91.5847   11.5454 C.3     1  UNL1        0.2368
     32 C          64.9973   92.2918   11.0336 C.ar    1  UNL1        0.0245
     33 C          66.3532   91.6773   11.2180 C.ar    1  UNL1        0.0026
     34 C          67.5730   92.3844   10.7062 C.ar    1  UNL1        0.0400
     35 C          67.4370   93.7060   10.0100 C.ar    1  UNL1        0.1764
     36 C          66.0812   94.3206    9.8255 C.ar    1  UNL1        0.1762
     37 C          64.8614   93.6135   10.3373 C.ar    1  UNL1        0.0395
     38 O          66.2574   95.6244    9.1052 O.3     1  UNL1       -0.4346
     39 C          67.7221   95.8158    8.8444 C.3     1  UNL1        0.4294
     40 O          68.4512   94.6301    9.4036 O.3     1  UNL1       -0.4346
     41 C          60.6474   87.2777   11.1333 C.3     1  UNL1        0.0485
     42 C          60.2077   87.6374    9.7451 C.ar    1  UNL1       -0.0204
     43 C          59.7889   86.5608    8.7884 C.ar    1  UNL1       -0.0042
     44 C          59.3492   86.9205    7.4001 C.ar    1  UNL1       -0.0003
     45 C          59.3281   88.3569    6.9687 C.ar    1  UNL1       -0.0000
     46 C          59.7468   89.4336    7.9254 C.ar    1  UNL1       -0.0003
     47 C          60.1866   89.0738    9.3136 C.ar    1  UNL1       -0.0042
@<TRIPOS>BOND
     1    19    20    1
     2    20    17    1
     3    17    18    1
     4    17     8    1
     5     8     9   ar
     6     9    10   ar
     7    10    11   ar
     8    11    12   ar
     9    12    13   ar
    10    13     5    1
    11     5     6    2
    12     5     7   am
    13     7    21    1
    14    21    22    1
    15    22    23    1
    16    22    24    1
    17     7     4    1
    18     4     1    1
    19     1     2    1
    20     1    25    1
    21    25    41    1
    22    41    42    1
    23    42    43   ar
    24    43    44   ar
    25    44    45   ar
    26    45    46   ar
    27    46    47   ar
    28    25    26    1
    29    26    27   am
    30    27    28    2
    31    27    30    1
    32    30    31    1
    33    31    32    1
    34    32    33   ar
    35    33    34   ar
    36    34    35   ar
    37    35    36   ar
    38    36    37   ar
    39    36    38    1
    40    38    39    1
    41    39    40    1
    42    13    14   ar
    43    14    15   ar
    44    15    16   ar
    45    16     8   ar
    46    15    10   ar
    47    47    42   ar
    48    37    32   ar
    49    40    35    1
    50     2     3    1
    51    26    29    1
@<TRIPOS>MOLECULE
*****
 47 51 0 0 0
SMALL
GASTEIGER

@<TRIPOS>ATOM
      1 C          62.5386   85.4178   11.1599 C.3     1  UNL1        0.1484
      2 O          63.2435   84.5137   10.1925 O.3     1  UNL1       -0.3810
      3 H          63.4031   83.6535   10.6114 H       1  UNL1        0.2105
      4 C          62.1971   84.9248   12.5348 C.3     1  UNL1        0.1245
      5 C          63.7038   84.0788   14.4750 C.2     1  UNL1        0.2492
      6 O          64.5204   82.9900   15.1056 O.2     1  UNL1       -0.2699
      7 N          63.0138   83.8360   13.1655 N.am    1  UNL1       -0.2735
      8 C          64.2683   90.2510   16.0053 C.ar    1  UNL1        0.2924
      9 N          63.3870   89.5031   16.9613 N.ar    1  UNL1       -0.1946
     10 C          63.3238   88.0734   16.5119 C.ar    1  UNL1        0.1202
     11 C          62.6082   86.8775   17.0667 C.ar    1  UNL1        0.0225
     12 C          62.7348   85.5461   16.3877 C.ar    1  UNL1        0.0063
     13 C          63.5771   85.4104   15.1540 C.ar    1  UNL1        0.0567
     14 C          64.2928   86.6062   14.5992 C.ar    1  UNL1        0.0437
     15 C          64.1661   87.9377   15.2781 C.ar    1  UNL1        0.1662
     16 O          64.7498   89.2835   14.9651 O.2     1  UNL1       -0.4237
     17 N          64.6084   91.7102   16.0770 N.pl3   1  UNL1       -0.2619
     18 C          63.7844   92.6314   16.9269 C.3     1  UNL1        0.1166
     19 C          67.0298   92.6494   16.0114 C.3     1  UNL1        0.0233
     20 C          65.7724   92.2481   15.2988 C.3     1  UNL1        0.0952
     21 C          63.1404   82.5044   12.4865 C.3     1  UNL1        0.0937
     22 C          62.3872   81.3192   13.0136 C.3     1  UNL1        0.0199
     23 C          61.4102   81.4912   14.1387 C.3     1  UNL1        0.0018
     24 C          62.6111   79.9618   12.4157 C.3     1  UNL1        0.0018
     25 C          62.1752   86.8148   10.7523 C.3     1  UNL1        0.1075
     26 N          61.8478   87.1171    9.3200 N.am    1  UNL1       -0.2695
     27 C          60.4975   87.6607    8.9579 C.2     1  UNL1        0.4020
     28 O          59.4745   87.9020   10.0280 O.2     1  UNL1       -0.2264
     29 H          62.5193   86.9587    8.6176 H       1  UNL1        0.1528
     30 O          60.1702   87.9630    7.5255 O.3     1  UNL1       -0.4297
     31 C          58.9451   88.7600    7.1883 C.3     1  UNL1        0.2368
     32 C          59.0234   89.8628    6.1745 C.ar    1  UNL1        0.0245
     33 C          57.7889   90.6299    5.8038 C.ar    1  UNL1        0.0026
     34 C          57.8672   91.7327    4.7899 C.ar    1  UNL1        0.0400
     35 C          59.1801   92.0682    4.1468 C.ar    1  UNL1        0.1764
     36 C          60.4147   91.3011    4.5175 C.ar    1  UNL1        0.1762
     37 C          60.3364   90.1984    5.5313 C.ar    1  UNL1        0.0395
     38 O          61.5601   91.8539    3.7221 O.3     1  UNL1       -0.4346
     39 C          61.0335   92.9626    2.8599 C.3     1  UNL1        0.4294
     40 O          59.5626   93.0951    3.1224 O.3     1  UNL1       -0.4346
     41 C          62.1391   87.9096   11.7771 C.3     1  UNL1        0.0485
     42 C          62.7422   89.2475   11.4668 C.ar    1  UNL1       -0.0204
     43 C          63.5702   89.9545   12.4986 C.ar    1  UNL1       -0.0042
     44 C          64.1733   91.2924   12.1883 C.ar    1  UNL1       -0.0003
     45 C          63.9484   91.9233   10.8462 C.ar    1  UNL1       -0.0000
     46 C          63.1205   91.2164    9.8144 C.ar    1  UNL1       -0.0003
     47 C          62.5174   89.8785   10.1247 C.ar    1  UNL1       -0.0042
@<TRIPOS>BOND
     1    19    20    1
     2    20    17    1
     3    17    18    1
     4    17     8    1
     5     8     9   ar
     6     9    10   ar
     7    10    11   ar
     8    11    12   ar
     9    12    13   ar
    10    13     5    1
    11     5     6    2
    12     5     7   am
    13     7    21    1
    14    21    22    1
    15    22    23    1
    16    22    24    1
    17     7     4    1
    18     4     1    1
    19     1     2    1
    20     1    25    1
    21    25    41    1
    22    41    42    1
    23    42    43   ar
    24    43    44   ar
    25    44    45   ar
    26    45    46   ar
    27    46    47   ar
    28    25    26    1
    29    26    27   am
    30    27    28    2
    31    27    30    1
    32    30    31    1
    33    31    32    1
    34    32    33   ar
    35    33    34   ar
    36    34    35   ar
    37    35    36   ar
    38    36    37   ar
    39    36    38    1
    40    38    39    1
    41    39    40    1
    42    13    14   ar
    43    14    15   ar
    44    15    16   ar
    45    16     8   ar
    46    15    10   ar
    47    47    42   ar
    48    37    32   ar
    49    40    35    1
    50     2     3    1
    51    26    29    1
@<TRIPOS>MOLECULE
*****
 47 51 0 0 0
SMALL
GASTEIGER

@<TRIPOS>ATOM
      1 C          63.2475   90.7783   10.9545 C.3     1  UNL1        0.1484
      2 O          63.1634   91.5734    9.6854 O.3     1  UNL1       -0.3810
      3 H          62.5259   91.1569    9.0846 H       1  UNL1        0.2105
      4 C          62.4097   89.5457   11.1243 C.3     1  UNL1        0.1245
      5 C          60.5158   88.2007    9.9606 C.2     1  UNL1        0.2492
      6 O          59.1388   88.1425    9.3687 O.2     1  UNL1       -0.2699
      7 N          61.0326   89.4875   10.5324 N.am    1  UNL1       -0.2735
      8 C          63.3685   82.7493   11.6640 C.ar    1  UNL1        0.2924
      9 N          63.8240   83.2377   10.3209 N.ar    1  UNL1       -0.1946
     10 C          63.0966   84.5148   10.0209 C.ar    1  UNL1        0.1202
     11 C          63.1414   85.4425    8.8431 C.ar    1  UNL1        0.0225
     12 C          62.2812   86.6711    8.8230 C.ar    1  UNL1        0.0063
     13 C          61.3761   86.9720    9.9807 C.ar    1  UNL1        0.0567
     14 C          61.3313   86.0443   11.1585 C.ar    1  UNL1        0.0437
     15 C          62.1915   84.8156   11.1786 C.ar    1  UNL1        0.1662
     16 O          62.3596   83.7245   12.1941 O.2     1  UNL1       -0.4237
     17 N          63.8393   81.5043   12.3556 N.pl3   1  UNL1       -0.2619
     18 C          65.2772   81.3696   12.7610 C.3     1  UNL1        0.1166
     19 C          61.7771   80.5938   13.6472 C.3     1  UNL1        0.0233
     20 C          62.8722   80.3940   12.6418 C.3     1  UNL1        0.0952
     21 C          60.1724   90.7162   10.5123 C.3     1  UNL1        0.0937
     22 C          59.1184   90.9111   11.5617 C.3     1  UNL1        0.0199
     23 C          58.3656   92.2062   11.6371 C.3     1  UNL1        0.0018
     24 C          58.8174   89.8107   12.5357 C.3     1  UNL1        0.0018
     25 C          64.1694   91.2158   12.0539 C.3     1  UNL1        0.1075
     26 N          63.6885   91.2303   13.4747 N.am    1  UNL1       -0.2695
     27 C          64.6696   91.0861   14.6001 C.2     1  UNL1        0.4020
     28 O          66.1317   90.9276   14.3048 O.2     1  UNL1       -0.2264
     29 H          62.7289   91.3343   13.6686 H       1  UNL1        0.1528
     30 O          64.1887   91.1006   16.0209 O.3     1  UNL1       -0.4297
     31 C          63.0915   90.1725   16.4508 C.3     1  UNL1        0.2368
     32 C          63.2877   88.6880   16.3636 C.ar    1  UNL1        0.0245
     33 C          62.7592   87.7966   17.4481 C.ar    1  UNL1        0.0026
     34 C          62.9555   86.3120   17.3609 C.ar    1  UNL1        0.0400
     35 C          63.6803   85.7189   16.1893 C.ar    1  UNL1        0.1764
     36 C          64.2089   86.6102   15.1048 C.ar    1  UNL1        0.1762
     37 C          64.0126   88.0948   15.1920 C.ar    1  UNL1        0.0395
     38 O          64.8780   85.7448   14.0785 O.3     1  UNL1       -0.4346
     39 C          64.7630   84.3186   14.5286 C.3     1  UNL1        0.4294
     40 O          64.0227   84.3026   15.8332 O.3     1  UNL1       -0.4346
     41 C          65.5722   91.6389   11.7326 C.3     1  UNL1        0.0485
     42 C          65.8728   93.0790   11.4400 C.ar    1  UNL1       -0.0204
     43 C          65.9467   93.5562   10.0199 C.ar    1  UNL1       -0.0042
     44 C          66.2474   94.9963    9.7272 C.ar    1  UNL1       -0.0003
     45 C          66.4741   95.9593   10.8547 C.ar    1  UNL1       -0.0000
     46 C          66.4001   95.4821   12.2748 C.ar    1  UNL1       -0.0003
     47 C          66.0995   94.0420   12.5675 C.ar    1  UNL1       -0.0042
@<TRIPOS>BOND
     1    19    20    1
     2    20    17    1
     3    17    18    1
     4    17     8    1
     5     8     9   ar
     6     9    10   ar
     7    10    11   ar
     8    11    12   ar
     9    12    13   ar
    10    13     5    1
    11     5     6    2
    12     5     7   am
    13     7    21    1
    14    21    22    1
    15    22    23    1
    16    22    24    1
    17     7     4    1
    18     4     1    1
    19     1     2    1
    20     1    25    1
    21    25    41    1
    22    41    42    1
    23    42    43   ar
    24    43    44   ar
    25    44    45   ar
    26    45    46   ar
    27    46    47   ar
    28    25    26    1
    29    26    27   am
    30    27    28    2
    31    27    30    1
    32    30    31    1
    33    31    32    1
    34    32    33   ar
    35    33    34   ar
    36    34    35   ar
    37    35    36   ar
    38    36    37   ar
    39    36    38    1
    40    38    39    1
    41    39    40    1
    42    13    14   ar
    43    14    15   ar
    44    15    16   ar
    45    16     8   ar
    46    15    10   ar
    47    47    42   ar
    48    37    32   ar
    49    40    35    1
    50     2     3    1
    51    26    29    1
@<TRIPOS>MOLECULE
*****
 47 51 0 0 0
SMALL
GASTEIGER

@<TRIPOS>ATOM
      1 C          63.0286   88.8706   12.1553 C.3     1  UNL1        0.1484
      2 O          63.3313   90.0502   11.2797 O.3     1  UNL1       -0.3810
      3 H          64.1197   90.5065   11.6130 H       1  UNL1        0.2105
      4 C          63.9045   88.5677   13.3349 C.3     1  UNL1        0.1245
      5 C          64.1273   90.4235   15.1393 C.2     1  UNL1        0.2492
      6 O          63.7779   90.9684   16.4925 O.2     1  UNL1       -0.2699
      7 N          63.5551   89.1125   14.6880 N.am    1  UNL1       -0.2735
      8 C          66.4728   94.1487   10.5156 C.ar    1  UNL1        0.2924
      9 N          67.5490   93.5749   11.3888 N.ar    1  UNL1       -0.1946
     10 C          66.8926   92.7222   12.4338 C.ar    1  UNL1        0.1202
     11 C          67.4527   91.9092   13.5631 C.ar    1  UNL1        0.0225
     12 C          66.5310   91.1430   14.4649 C.ar    1  UNL1        0.0063
     13 C          65.0491   91.1898   14.2374 C.ar    1  UNL1        0.0567
     14 C          64.4889   92.0028   13.1082 C.ar    1  UNL1        0.0437
     15 C          65.4106   92.7690   12.2064 C.ar    1  UNL1        0.1662
     16 O          65.1513   93.6506   11.0209 O.2     1  UNL1       -0.4237
     17 N          66.6816   95.0604    9.3429 N.pl3   1  UNL1       -0.2619
     18 C          67.3211   94.5376    8.0909 C.3     1  UNL1        0.1166
     19 C          64.7921   96.8431    9.3876 C.3     1  UNL1        0.0233
     20 C          66.2507   96.4950    9.4223 C.3     1  UNL1        0.0952
     21 C          62.6333   88.3463   15.5899 C.3     1  UNL1        0.0937
     22 C          63.1595   87.1987   16.4001 C.3     1  UNL1        0.0199
     23 C          64.0422   86.1698   15.7581 C.3     1  UNL1        0.0018
     24 C          62.8029   87.0801   17.8523 C.3     1  UNL1        0.0018
     25 C          61.8501   87.9938   11.8516 C.3     1  UNL1        0.1075
     26 N          60.6934   88.5375   11.0663 N.am    1  UNL1       -0.2695
     27 C          60.8325   88.7725    9.5914 C.2     1  UNL1        0.4020
     28 O          62.1283   88.4638    8.9017 O.2     1  UNL1       -0.2264
     29 H          59.8430   88.7401   11.5190 H       1  UNL1        0.1528
     30 O          59.6758   89.3162    8.8062 O.3     1  UNL1       -0.4297
     31 C          59.4712   88.8929    7.3818 C.3     1  UNL1        0.2368
     32 C          59.3277   89.9275    6.3052 C.ar    1  UNL1        0.0245
     33 C          57.9744   90.4842    5.9756 C.ar    1  UNL1        0.0026
     34 C          57.8309   91.5188    4.8990 C.ar    1  UNL1        0.0400
     35 C          59.0407   91.9967    4.1521 C.ar    1  UNL1        0.1764
     36 C          60.3940   91.4400    4.4817 C.ar    1  UNL1        0.1762
     37 C          60.5375   90.4054    5.5582 C.ar    1  UNL1        0.0395
     38 O          61.3977   92.0985    3.5822 O.3     1  UNL1       -0.4346
     39 C          60.6647   93.0621    2.6967 C.3     1  UNL1        0.4294
     40 O          59.2080   92.9992    3.0489 O.3     1  UNL1       -0.4346
     41 C          61.8282   86.5733   12.3330 C.3     1  UNL1        0.0485
     42 C          62.5538   85.5095   11.5637 C.ar    1  UNL1       -0.0204
     43 C          63.2891   84.4252   12.2943 C.ar    1  UNL1       -0.0042
     44 C          64.0147   83.3614   11.5251 C.ar    1  UNL1       -0.0003
     45 C          64.0051   83.3817   10.0253 C.ar    1  UNL1       -0.0000
     46 C          63.2698   84.4659    9.2947 C.ar    1  UNL1       -0.0003
     47 C          62.5442   85.5298   10.0640 C.ar    1  UNL1       -0.0042
@<TRIPOS>BOND
     1    19    20    1
     2    20    17    1
     3    17    18    1
     4    17     8    1
     5     8     9   ar
     6     9    10   ar
     7    10    11   ar
     8    11    12   ar
     9    12    13   ar
    10    13     5    1
    11     5     6    2
    12     5     7   am
    13     7    21    1
    14    21    22    1
    15    22    23    1
    16    22    24    1
    17     7     4    1
    18     4     1    1
    19     1     2    1
    20     1    25    1
    21    25    41    1
    22    41    42    1
    23    42    43   ar
    24    43    44   ar
    25    44    45   ar
    26    45    46   ar
    27    46    47   ar
    28    25    26    1
    29    26    27   am
    30    27    28    2
    31    27    30    1
    32    30    31    1
    33    31    32    1
    34    32    33   ar
    35    33    34   ar
    36    34    35   ar
    37    35    36   ar
    38    36    37   ar
    39    36    38    1
    40    38    39    1
    41    39    40    1
    42    13    14   ar
    43    14    15   ar
    44    15    16   ar
    45    16     8   ar
    46    15    10   ar
    47    47    42   ar
    48    37    32   ar
    49    40    35    1
    50     2     3    1
    51    26    29    1
