@<TRIPOS>MOLECULE
*****
 40 44 0 0 0
SMALL
GASTEIGER

@<TRIPOS>ATOM
      1 C          60.4487   92.2204    3.7053 C.ar    1  UNL1        0.1385
      2 C          61.2796   91.2320    4.4686 C.ar    1  UNL1        0.0366
      3 C          60.6530   90.4014    5.5492 C.ar    1  UNL1       -0.0011
      4 C          59.1955   90.5594    5.8664 C.ar    1  UNL1       -0.0214
      5 C          58.3645   91.5478    5.1032 C.ar    1  UNL1       -0.0011
      6 C          58.9912   92.3783    4.0226 C.ar    1  UNL1        0.0366
      7 O          61.0753   93.0509    2.6247 O.3     1  UNL1       -0.4750
      8 C          62.4499   92.7182    2.1251 C.3     1  UNL1        0.2118
      9 C          62.8728   93.1471    0.7513 C.3     1  UNL1        0.0960
     10 C          62.8964   95.6912   -1.2924 C.3     1  UNL1        0.0738
     11 C          61.8489   94.6193   -1.2310 C.ar    1  UNL1        0.1387
     12 O          60.6284   94.5286   -2.0982 O.2     1  UNL1       -0.4392
     13 C          59.8632   93.3031   -1.6947 C.ar    1  UNL1        0.2289
     14 N          60.6108   92.6365   -0.5782 N.ar    1  UNL1       -0.2129
     15 C          61.8381   93.4499   -0.2916 C.ar    1  UNL1        0.0960
     16 C          58.5762   92.8278   -2.3013 C.ar    1  UNL1        0.0535
     17 C          57.4241   92.4521   -1.4174 C.ar    1  UNL1        0.0046
     18 C          56.1373   91.9768   -2.0240 C.ar    1  UNL1        0.0002
     19 C          56.0025   91.8772   -3.5146 C.ar    1  UNL1        0.0000
     20 C          57.1546   92.2528   -4.3986 C.ar    1  UNL1        0.0002
     21 C          58.4415   92.7281   -3.7919 C.ar    1  UNL1        0.0046
     22 C          58.5689   89.7289    6.9470 C.3     1  UNL1        0.0375
     23 C          59.4005   88.7427    7.7124 C.3     1  UNL1        0.1052
     24 C          59.6646   87.2700    7.6065 C.2     1  UNL1        0.2315
     25 O          59.2065   86.1733    6.6913 O.2     1  UNL1       -0.2745
     26 N          60.5766   87.3480    8.7948 N.am    1  UNL1       -0.2546
     27 C          60.3125   88.8208    8.9007 C.3     1  UNL1        0.1249
     28 C          61.4083   86.3618    9.5602 C.ar    1  UNL1        0.0541
     29 C          61.2575   86.2488   11.0482 C.ar    1  UNL1        0.0146
     30 C          62.0891   85.2626   11.8136 C.ar    1  UNL1       -0.0030
     31 C          63.0716   84.3893   11.0908 C.ar    1  UNL1       -0.0227
     32 C          63.2223   84.5025    9.6027 C.ar    1  UNL1       -0.0030
     33 C          62.3907   85.4886    8.8374 C.ar    1  UNL1        0.0146
     34 C          63.9032   83.4032   11.8562 C.3     1  UNL1        0.0189
     35 C          64.2599   82.7095   10.5749 C.3     1  UNL1        0.0044
     36 C          63.5466   84.0968   13.1375 C.3     1  UNL1        0.0044
     37 C          64.7349   82.4170   12.6216 C.3     1  UNL1        0.0044
     38 C          60.7706   89.9174    9.8160 C.2     1  UNL1        0.0692
     39 O          59.7629   90.7531   10.5483 O.co2   1  UNL1       -0.5475
     40 O          62.2363   90.1783    9.9988 O.co2   1  UNL1       -0.5475
@<TRIPOS>UNITY_ATOM_ATTR
39 1
charge -1
@<TRIPOS>BOND
     1    10    11    1
     2    11    12   ar
     3    12    13   ar
     4    13    16    1
     5    16    17   ar
     6    17    18   ar
     7    18    19   ar
     8    19    20   ar
     9    20    21   ar
    10    13    14   ar
    11    14    15   ar
    12    15     9    1
    13     9     8    1
    14     8     7    1
    15     7     1    1
    16     1     2   ar
    17     2     3   ar
    18     3     4   ar
    19     4    22    1
    20    23    22    1
    21    23    24    1
    22    24    25    2
    23    24    26   am
    24    26    28    1
    25    28    29   ar
    26    29    30   ar
    27    30    31   ar
    28    31    34    1
    29    34    35    1
    30    34    36    1
    31    34    37    1
    32    31    32   ar
    33    32    33   ar
    34    26    27    1
    35    27    38    1
    36    38    39   ar
    37    38    40   ar
    38     4     5   ar
    39     5     6   ar
    40    15    11   ar
    41     6     1   ar
    42    21    16   ar
    43    27    23    1
    44    33    28   ar
@<TRIPOS>MOLECULE
*****
 40 44 0 0 0
SMALL
GASTEIGER

@<TRIPOS>ATOM
      1 C          60.3671   92.2219    3.6705 C.ar    1  UNL1        0.1385
      2 C          61.2231   91.2694    4.4514 C.ar    1  UNL1        0.0366
      3 C          60.6158   90.4353    5.5404 C.ar    1  UNL1       -0.0011
      4 C          59.1525   90.5539    5.8481 C.ar    1  UNL1       -0.0214
      5 C          58.2965   91.5064    5.0671 C.ar    1  UNL1       -0.0011
      6 C          58.9039   92.3404    3.9783 C.ar    1  UNL1        0.0366
      7 O          60.9744   93.0559    2.5816 O.3     1  UNL1       -0.4750
      8 C          62.2573   92.6256    1.9343 C.3     1  UNL1        0.2118
      9 C          63.4266   93.5640    1.8899 C.3     1  UNL1        0.0960
     10 C          64.9188   96.4401    1.5007 C.3     1  UNL1        0.0738
     11 C          64.5433   95.4863    0.4056 C.ar    1  UNL1        0.1387
     12 O          64.7878   95.6870   -1.0606 O.2     1  UNL1       -0.4392
     13 C          64.2530   94.4890   -1.7880 C.ar    1  UNL1        0.2289
     14 N          63.6780   93.5480   -0.7712 N.ar    1  UNL1       -0.2129
     15 C          63.8574   94.1643    0.5845 C.ar    1  UNL1        0.0960
     16 C          64.2872   94.2705   -3.2716 C.ar    1  UNL1        0.0535
     17 C          63.9033   92.9376   -3.8425 C.ar    1  UNL1        0.0046
     18 C          63.9376   92.7192   -5.3261 C.ar    1  UNL1        0.0002
     19 C          64.3557   93.8337   -6.2388 C.ar    1  UNL1        0.0000
     20 C          64.7396   95.1666   -5.6679 C.ar    1  UNL1        0.0002
     21 C          64.7054   95.3850   -4.1844 C.ar    1  UNL1        0.0046
     22 C          58.5452   89.7198    6.9370 C.3     1  UNL1        0.0375
     23 C          59.3935   88.7410    7.6936 C.3     1  UNL1        0.1052
     24 C          59.6539   87.2669    7.5974 C.2     1  UNL1        0.2315
     25 O          59.1740   86.1610    6.7049 O.2     1  UNL1       -0.2745
     26 N          60.5932   87.3568    8.7635 N.am    1  UNL1       -0.2546
     27 C          60.3327   88.8309    8.8597 C.3     1  UNL1        0.1249
     28 C          61.4415   86.3780    9.5201 C.ar    1  UNL1        0.0541
     29 C          61.2850   86.2412   11.0055 C.ar    1  UNL1        0.0146
     30 C          62.1333   85.2624   11.7621 C.ar    1  UNL1       -0.0030
     31 C          63.1381   84.4204   11.0331 C.ar    1  UNL1       -0.0227
     32 C          63.2945   84.5572    9.5475 C.ar    1  UNL1       -0.0030
     33 C          62.4463   85.5360    8.7911 C.ar    1  UNL1        0.0146
     34 C          63.9864   83.4416   11.7896 C.3     1  UNL1        0.0189
     35 C          63.7046   84.1819   13.0634 C.3     1  UNL1        0.0044
     36 C          64.2682   82.7012   10.5159 C.3     1  UNL1        0.0044
     37 C          64.8347   82.4628   12.5462 C.3     1  UNL1        0.0044
     38 C          60.8127   89.9368    9.7522 C.2     1  UNL1        0.0692
     39 O          59.8226   90.7861   10.4928 O.co2   1  UNL1       -0.5475
     40 O          62.2827   90.1934    9.9041 O.co2   1  UNL1       -0.5475
@<TRIPOS>UNITY_ATOM_ATTR
39 1
charge -1
@<TRIPOS>BOND
     1    10    11    1
     2    11    12   ar
     3    12    13   ar
     4    13    16    1
     5    16    17   ar
     6    17    18   ar
     7    18    19   ar
     8    19    20   ar
     9    20    21   ar
    10    13    14   ar
    11    14    15   ar
    12    15     9    1
    13     9     8    1
    14     8     7    1
    15     7     1    1
    16     1     2   ar
    17     2     3   ar
    18     3     4   ar
    19     4    22    1
    20    23    22    1
    21    23    24    1
    22    24    25    2
    23    24    26   am
    24    26    28    1
    25    28    29   ar
    26    29    30   ar
    27    30    31   ar
    28    31    34    1
    29    34    35    1
    30    34    36    1
    31    34    37    1
    32    31    32   ar
    33    32    33   ar
    34    26    27    1
    35    27    38    1
    36    38    39   ar
    37    38    40   ar
    38     4     5   ar
    39     5     6   ar
    40    15    11   ar
    41     6     1   ar
    42    21    16   ar
    43    27    23    1
    44    33    28   ar
@<TRIPOS>MOLECULE
*****
 40 44 0 0 0
SMALL
GASTEIGER

@<TRIPOS>ATOM
      1 C          59.5736   92.4328    4.3161 C.ar    1  UNL1        0.1385
      2 C          58.1652   92.0742    4.6872 C.ar    1  UNL1        0.0366
      3 C          57.8938   90.8408    5.4966 C.ar    1  UNL1       -0.0011
      4 C          59.0309   89.9661    5.9348 C.ar    1  UNL1       -0.0214
      5 C          60.4393   90.3247    5.5637 C.ar    1  UNL1       -0.0011
      6 C          60.7106   91.5581    4.7543 C.ar    1  UNL1        0.0366
      7 O          59.8450   93.6662    3.5067 O.3     1  UNL1       -0.4750
      8 C          60.2102   93.5465    2.0567 C.3     1  UNL1        0.2118
      9 C          61.3919   92.7186    1.6468 C.3     1  UNL1        0.0960
     10 C          64.1953   94.3819    1.8017 C.3     1  UNL1        0.0738
     11 C          63.5219   93.9038    0.5496 C.ar    1  UNL1        0.1387
     12 O          64.0187   94.1063   -0.8512 O.2     1  UNL1       -0.4392
     13 C          63.0372   93.4669   -1.7881 C.ar    1  UNL1        0.2289
     14 N          61.9338   92.8692   -0.9664 N.ar    1  UNL1       -0.2129
     15 C          62.2333   93.1392    0.4783 C.ar    1  UNL1        0.0960
     16 C          63.1410   93.4314   -3.2841 C.ar    1  UNL1        0.0535
     17 C          64.0741   92.4629   -3.9484 C.ar    1  UNL1        0.0046
     18 C          64.1778   92.4274   -5.4444 C.ar    1  UNL1        0.0002
     19 C          63.3485   93.3605   -6.2761 C.ar    1  UNL1        0.0000
     20 C          62.4154   94.3290   -5.6118 C.ar    1  UNL1        0.0002
     21 C          62.3117   94.3644   -4.1158 C.ar    1  UNL1        0.0046
     22 C          58.7594   88.7326    6.7442 C.3     1  UNL1        0.0375
     23 C          59.6334   88.3972    7.9162 C.3     1  UNL1        0.1052
     24 C          60.0012   89.0865    9.1967 C.2     1  UNL1        0.2315
     25 O          59.6473   90.3967    9.8357 O.2     1  UNL1       -0.2745
     26 N          60.8695   87.9229    9.5737 N.am    1  UNL1       -0.2546
     27 C          60.5017   87.2336    8.2931 C.3     1  UNL1        0.1249
     28 C          61.7435   87.5875   10.7457 C.ar    1  UNL1        0.0541
     29 C          62.4724   88.6776   11.4739 C.ar    1  UNL1        0.0146
     30 C          63.3464   88.3422   12.6459 C.ar    1  UNL1       -0.0030
     31 C          63.4916   86.9166   13.0897 C.ar    1  UNL1       -0.0227
     32 C          62.7627   85.8266   12.3613 C.ar    1  UNL1       -0.0030
     33 C          61.8887   86.1620   11.1893 C.ar    1  UNL1        0.0146
     34 C          64.3656   86.5812   14.2617 C.3     1  UNL1        0.0189
     35 C          64.4631   88.0379   14.6058 C.3     1  UNL1        0.0044
     36 C          64.2681   85.1245   13.9175 C.3     1  UNL1        0.0044
     37 C          65.2396   86.2458   15.4336 C.3     1  UNL1        0.0044
     38 C          60.8557   85.9235    7.6542 C.2     1  UNL1        0.0692
     39 O          59.8109   85.1450    6.9109 O.co2   1  UNL1       -0.5475
     40 O          62.2544   85.3918    7.7586 O.co2   1  UNL1       -0.5475
@<TRIPOS>UNITY_ATOM_ATTR
39 1
charge -1
@<TRIPOS>BOND
     1    10    11    1
     2    11    12   ar
     3    12    13   ar
     4    13    16    1
     5    16    17   ar
     6    17    18   ar
     7    18    19   ar
     8    19    20   ar
     9    20    21   ar
    10    13    14   ar
    11    14    15   ar
    12    15     9    1
    13     9     8    1
    14     8     7    1
    15     7     1    1
    16     1     2   ar
    17     2     3   ar
    18     3     4   ar
    19     4    22    1
    20    23    22    1
    21    23    24    1
    22    24    25    2
    23    24    26   am
    24    26    28    1
    25    28    29   ar
    26    29    30   ar
    27    30    31   ar
    28    31    34    1
    29    34    35    1
    30    34    36    1
    31    34    37    1
    32    31    32   ar
    33    32    33   ar
    34    26    27    1
    35    27    38    1
    36    38    39   ar
    37    38    40   ar
    38     4     5   ar
    39     5     6   ar
    40    15    11   ar
    41     6     1   ar
    42    21    16   ar
    43    27    23    1
    44    33    28   ar
@<TRIPOS>MOLECULE
*****
 40 44 0 0 0
SMALL
GASTEIGER

@<TRIPOS>ATOM
      1 C          59.2355   90.2290    5.5935 C.ar    1  UNL1        0.1385
      2 C          58.0913   91.1275    5.2281 C.ar    1  UNL1        0.0366
      3 C          58.3405   92.3717    4.4281 C.ar    1  UNL1       -0.0011
      4 C          59.7339   92.7173    3.9935 C.ar    1  UNL1       -0.0214
      5 C          60.8782   91.8189    4.3589 C.ar    1  UNL1       -0.0011
      6 C          60.6288   90.5747    5.1589 C.ar    1  UNL1        0.0366
      7 O          58.9863   88.9849    6.3934 O.3     1  UNL1       -0.4750
      8 C          59.6727   88.7917    7.7131 C.3     1  UNL1        0.2118
      9 C          59.2726   87.6558    8.6074 C.3     1  UNL1        0.0960
     10 C          59.9552   89.1942   11.4034 C.3     1  UNL1        0.0738
     11 C          60.5257   87.8804   10.9579 C.ar    1  UNL1        0.1387
     12 O          61.5100   87.0430   11.7192 O.2     1  UNL1       -0.4392
     13 C          61.8047   85.8183   10.9047 C.ar    1  UNL1        0.2289
     14 N          61.0024   85.8989    9.6398 N.ar    1  UNL1       -0.2129
     15 C          60.2119   87.1733    9.6727 C.ar    1  UNL1        0.0960
     16 C          62.7378   84.7081   11.2877 C.ar    1  UNL1        0.0535
     17 C          62.9680   84.3875   12.7349 C.ar    1  UNL1        0.0046
     18 C          63.9010   83.2773   13.1179 C.ar    1  UNL1        0.0002
     19 C          64.6040   82.4877   12.0537 C.ar    1  UNL1        0.0000
     20 C          64.3739   82.8083   10.6066 C.ar    1  UNL1        0.0002
     21 C          63.4408   83.9185   10.2236 C.ar    1  UNL1        0.0046
     22 C          59.9831   93.9616    3.1935 C.3     1  UNL1        0.0375
     23 C          60.5375   93.8609    1.8034 C.3     1  UNL1        0.1052
     24 C          59.9597   93.9508    0.4221 C.2     1  UNL1        0.2315
     25 O          58.5883   94.1786   -0.1414 O.2     1  UNL1       -0.2745
     26 N          61.3215   93.7186   -0.1627 N.am    1  UNL1       -0.2546
     27 C          61.8992   93.6287    1.2188 C.3     1  UNL1        0.1249
     28 C          61.8758   93.6179   -1.5528 C.ar    1  UNL1        0.0541
     29 C          63.2907   93.1678   -1.7653 C.ar    1  UNL1        0.0146
     30 C          63.8450   93.0671   -3.1554 C.ar    1  UNL1       -0.0030
     31 C          62.9843   93.4167   -4.3332 C.ar    1  UNL1       -0.0227
     32 C          61.5693   93.8668   -4.1207 C.ar    1  UNL1       -0.0030
     33 C          61.0151   93.9675   -2.7305 C.ar    1  UNL1        0.0146
     34 C          63.5386   93.3160   -5.7234 C.3     1  UNL1        0.0189
     35 C          62.4768   94.2546   -6.2148 C.3     1  UNL1        0.0044
     36 C          64.6005   92.3774   -5.2320 C.3     1  UNL1        0.0044
     37 C          64.0930   93.2154   -7.1136 C.3     1  UNL1        0.0044
     38 C          63.2706   93.4009    1.7821 C.2     1  UNL1        0.0692
     39 O          64.2251   94.5498    1.9202 O.co2   1  UNL1       -0.5475
     40 O          63.6875   92.0242    2.2074 O.co2   1  UNL1       -0.5475
@<TRIPOS>UNITY_ATOM_ATTR
39 1
charge -1
@<TRIPOS>BOND
     1    10    11    1
     2    11    12   ar
     3    12    13   ar
     4    13    16    1
     5    16    17   ar
     6    17    18   ar
     7    18    19   ar
     8    19    20   ar
     9    20    21   ar
    10    13    14   ar
    11    14    15   ar
    12    15     9    1
    13     9     8    1
    14     8     7    1
    15     7     1    1
    16     1     2   ar
    17     2     3   ar
    18     3     4   ar
    19     4    22    1
    20    23    22    1
    21    23    24    1
    22    24    25    2
    23    24    26   am
    24    26    28    1
    25    28    29   ar
    26    29    30   ar
    27    30    31   ar
    28    31    34    1
    29    34    35    1
    30    34    36    1
    31    34    37    1
    32    31    32   ar
    33    32    33   ar
    34    26    27    1
    35    27    38    1
    36    38    39   ar
    37    38    40   ar
    38     4     5   ar
    39     5     6   ar
    40    15    11   ar
    41     6     1   ar
    42    21    16   ar
    43    27    23    1
    44    33    28   ar
@<TRIPOS>MOLECULE
*****
 40 44 0 0 0
SMALL
GASTEIGER

@<TRIPOS>ATOM
      1 C          59.7990   92.3625    4.2469 C.ar    1  UNL1        0.1385
      2 C          58.3804   92.1163    4.6677 C.ar    1  UNL1        0.0366
      3 C          58.0461   90.9268    5.5183 C.ar    1  UNL1       -0.0011
      4 C          59.1304   89.9836    5.9479 C.ar    1  UNL1       -0.0214
      5 C          60.5489   90.2297    5.5270 C.ar    1  UNL1       -0.0011
      6 C          60.8831   91.4193    4.6765 C.ar    1  UNL1        0.0366
      7 O          60.1332   93.5520    3.3964 O.3     1  UNL1       -0.4750
      8 C          59.7207   93.5828    1.9546 C.3     1  UNL1        0.2118
      9 C          60.5067   92.8157    0.9330 C.3     1  UNL1        0.0960
     10 C          62.6683   93.5359   -1.4034 C.3     1  UNL1        0.0738
     11 C          61.1979   93.3142   -1.6006 C.ar    1  UNL1        0.1387
     12 O          60.4629   93.3845   -2.9062 O.2     1  UNL1       -0.4392
     13 C          59.0151   93.0969   -2.6393 C.ar    1  UNL1        0.2289
     14 N          58.8553   92.8488   -1.1686 N.ar    1  UNL1       -0.2129
     15 C          60.2043   92.9831   -0.5266 C.ar    1  UNL1        0.0960
     16 C          57.9195   93.0633   -3.6633 C.ar    1  UNL1        0.0535
     17 C          57.1793   94.3206   -4.0112 C.ar    1  UNL1        0.0046
     18 C          56.0837   94.2870   -5.0352 C.ar    1  UNL1        0.0002
     19 C          55.7283   92.9960   -5.7112 C.ar    1  UNL1        0.0000
     20 C          56.4686   91.7386   -5.3633 C.ar    1  UNL1        0.0002
     21 C          57.5641   91.7723   -4.3393 C.ar    1  UNL1        0.0046
     22 C          58.7961   88.7940    6.7984 C.3     1  UNL1        0.0375
     23 C          59.6673   88.4386    7.9666 C.3     1  UNL1        0.1052
     24 C          60.0417   89.1114    9.2539 C.2     1  UNL1        0.2315
     25 O          59.7002   90.4182    9.9063 O.2     1  UNL1       -0.2745
     26 N          60.8994   87.9360    9.6187 N.am    1  UNL1       -0.2546
     27 C          60.5248   87.2632    8.3313 C.3     1  UNL1        0.1249
     28 C          61.7706   87.5806   10.7869 C.ar    1  UNL1        0.0541
     29 C          62.5101   88.6563   11.5256 C.ar    1  UNL1        0.0146
     30 C          63.3813   88.3009   12.6938 C.ar    1  UNL1       -0.0030
     31 C          63.5130   86.8697   13.1233 C.ar    1  UNL1       -0.0227
     32 C          62.7734   85.7940   12.3844 C.ar    1  UNL1       -0.0030
     33 C          61.9022   86.1495   11.2163 C.ar    1  UNL1        0.0146
     34 C          64.3842   86.5143   14.2915 C.3     1  UNL1        0.0189
     35 C          64.4890   87.9658   14.6549 C.3     1  UNL1        0.0044
     36 C          64.2794   85.0628   13.9280 C.3     1  UNL1        0.0044
     37 C          65.2554   86.1589   15.4596 C.3     1  UNL1        0.0044
     38 C          60.8664   85.9564    7.6790 C.2     1  UNL1        0.0692
     39 O          59.8129   85.1926    6.9329 O.co2   1  UNL1       -0.5475
     40 O          62.2616   85.4135    7.7728 O.co2   1  UNL1       -0.5475
@<TRIPOS>UNITY_ATOM_ATTR
39 1
charge -1
@<TRIPOS>BOND
     1    10    11    1
     2    11    12   ar
     3    12    13   ar
     4    13    16    1
     5    16    17   ar
     6    17    18   ar
     7    18    19   ar
     8    19    20   ar
     9    20    21   ar
    10    13    14   ar
    11    14    15   ar
    12    15     9    1
    13     9     8    1
    14     8     7    1
    15     7     1    1
    16     1     2   ar
    17     2     3   ar
    18     3     4   ar
    19     4    22    1
    20    23    22    1
    21    23    24    1
    22    24    25    2
    23    24    26   am
    24    26    28    1
    25    28    29   ar
    26    29    30   ar
    27    30    31   ar
    28    31    34    1
    29    34    35    1
    30    34    36    1
    31    34    37    1
    32    31    32   ar
    33    32    33   ar
    34    26    27    1
    35    27    38    1
    36    38    39   ar
    37    38    40   ar
    38     4     5   ar
    39     5     6   ar
    40    15    11   ar
    41     6     1   ar
    42    21    16   ar
    43    27    23    1
    44    33    28   ar
@<TRIPOS>MOLECULE
*****
 40 44 0 0 0
SMALL
GASTEIGER

@<TRIPOS>ATOM
      1 C          59.2373   90.2925    5.7774 C.ar    1  UNL1        0.1385
      2 C          58.2590   91.2806    5.2148 C.ar    1  UNL1        0.0366
      3 C          58.7226   92.3244    4.2423 C.ar    1  UNL1       -0.0011
      4 C          60.1645   92.3800    3.8326 C.ar    1  UNL1       -0.0214
      5 C          61.1428   91.3919    4.3953 C.ar    1  UNL1       -0.0011
      6 C          60.6791   90.3481    5.3677 C.ar    1  UNL1        0.0366
      7 O          58.7737   89.2487    6.7498 O.3     1  UNL1       -0.4750
      8 C          59.7725   88.5118    7.5920 C.3     1  UNL1        0.2118
      9 C          59.5899   88.4370    9.0789 C.3     1  UNL1        0.0960
     10 C          61.3736   89.8776   11.4012 C.3     1  UNL1        0.0738
     11 C          61.4512   88.4350   10.9975 C.ar    1  UNL1        0.1387
     12 O          62.3624   87.4014   11.5902 O.2     1  UNL1       -0.4392
     13 C          62.1056   86.1004   10.8892 C.ar    1  UNL1        0.2289
     14 N          61.0358   86.3300    9.8631 N.ar    1  UNL1       -0.2129
     15 C          60.6314   87.7728    9.9300 C.ar    1  UNL1        0.0960
     16 C          62.7973   84.7983   11.1656 C.ar    1  UNL1        0.0535
     17 C          63.4991   84.0716   10.0569 C.ar    1  UNL1        0.0046
     18 C          64.1907   82.7697   10.3334 C.ar    1  UNL1        0.0002
     19 C          64.1805   82.1944   11.7187 C.ar    1  UNL1        0.0000
     20 C          63.4787   82.9211   12.8274 C.ar    1  UNL1        0.0002
     21 C          62.7871   84.2230   12.5509 C.ar    1  UNL1        0.0046
     22 C          60.6281   93.4238    2.8602 C.3     1  UNL1        0.0375
     23 C          60.1041   93.4250    1.4547 C.3     1  UNL1        0.1052
     24 C          59.9699   92.3957    0.3719 C.2     1  UNL1        0.2315
     25 O          60.3041   90.9389    0.2459 O.2     1  UNL1       -0.2745
     26 N          59.3630   93.4267   -0.5330 N.am    1  UNL1       -0.2546
     27 C          59.4972   94.4561    0.5499 C.3     1  UNL1        0.1249
     28 C          58.8389   93.4279   -1.9385 C.ar    1  UNL1        0.0541
     29 C          57.5452   92.7391   -2.2571 C.ar    1  UNL1        0.0146
     30 C          57.0211   92.7403   -3.6625 C.ar    1  UNL1       -0.0030
     31 C          57.7910   93.4304   -4.7495 C.ar    1  UNL1       -0.0227
     32 C          59.0848   94.1192   -4.4307 C.ar    1  UNL1       -0.0030
     33 C          59.6087   94.1180   -3.0253 C.ar    1  UNL1        0.0146
     34 C          57.2669   93.4316   -6.1549 C.3     1  UNL1        0.0189
     35 C          58.5774   93.9742   -6.6431 C.3     1  UNL1        0.0044
     36 C          55.9565   92.8889   -5.6668 C.3     1  UNL1        0.0044
     37 C          56.7429   93.4327   -7.5604 C.3     1  UNL1        0.0044
     38 C          59.1629   95.9129    0.6758 C.2     1  UNL1        0.0692
     39 O          59.6160   96.6851    1.8793 O.co2   1  UNL1       -0.5475
     40 O          58.3756   96.5975   -0.4019 O.co2   1  UNL1       -0.5475
@<TRIPOS>UNITY_ATOM_ATTR
39 1
charge -1
@<TRIPOS>BOND
     1    10    11    1
     2    11    12   ar
     3    12    13   ar
     4    13    16    1
     5    16    17   ar
     6    17    18   ar
     7    18    19   ar
     8    19    20   ar
     9    20    21   ar
    10    13    14   ar
    11    14    15   ar
    12    15     9    1
    13     9     8    1
    14     8     7    1
    15     7     1    1
    16     1     2   ar
    17     2     3   ar
    18     3     4   ar
    19     4    22    1
    20    23    22    1
    21    23    24    1
    22    24    25    2
    23    24    26   am
    24    26    28    1
    25    28    29   ar
    26    29    30   ar
    27    30    31   ar
    28    31    34    1
    29    34    35    1
    30    34    36    1
    31    34    37    1
    32    31    32   ar
    33    32    33   ar
    34    26    27    1
    35    27    38    1
    36    38    39   ar
    37    38    40   ar
    38     4     5   ar
    39     5     6   ar
    40    15    11   ar
    41     6     1   ar
    42    21    16   ar
    43    27    23    1
    44    33    28   ar
@<TRIPOS>MOLECULE
*****
 40 44 0 0 0
SMALL
GASTEIGER

@<TRIPOS>ATOM
      1 C          61.4501   86.5771    8.7869 C.ar    1  UNL1        0.1385
      2 C          62.6795   87.2771    9.2855 C.ar    1  UNL1        0.0366
      3 C          62.5667   88.3154   10.3624 C.ar    1  UNL1       -0.0011
      4 C          61.2244   88.6535   10.9404 C.ar    1  UNL1       -0.0214
      5 C          59.9951   87.9535   10.4417 C.ar    1  UNL1       -0.0011
      6 C          60.1080   86.9153    9.3650 C.ar    1  UNL1        0.0366
      7 O          61.5629   85.5389    7.7102 O.3     1  UNL1       -0.4750
      8 C          62.1623   84.1992    8.0199 C.3     1  UNL1        0.2118
      9 C          63.4387   84.1115    8.8028 C.3     1  UNL1        0.0960
     10 C          63.3450   81.1647   10.2019 C.3     1  UNL1        0.0738
     11 C          63.3541   82.4817   10.9198 C.ar    1  UNL1        0.1387
     12 O          63.3217   82.6755   12.4069 O.2     1  UNL1       -0.4392
     13 C          63.3447   84.1497   12.6829 C.ar    1  UNL1        0.2289
     14 N          63.3914   84.8671   11.3664 N.ar    1  UNL1       -0.2129
     15 C          63.3972   83.8362   10.2767 C.ar    1  UNL1        0.0960
     16 C          63.3246   84.7935   14.0376 C.ar    1  UNL1        0.0535
     17 C          64.2629   85.9226   14.3454 C.ar    1  UNL1        0.0046
     18 C          64.2427   86.5663   15.7000 C.ar    1  UNL1        0.0002
     19 C          63.2843   86.0810   16.7469 C.ar    1  UNL1        0.0000
     20 C          62.3461   84.9519   16.4391 C.ar    1  UNL1        0.0002
     21 C          62.3662   84.3082   15.0845 C.ar    1  UNL1        0.0046
     22 C          61.1116   89.6917   12.0172 C.3     1  UNL1        0.0375
     23 C          62.3498   90.2458   12.6575 C.3     1  UNL1        0.1052
     24 C          62.9501   90.1885   14.0309 C.2     1  UNL1        0.2315
     25 O          62.5611   89.5534   15.3330 O.2     1  UNL1       -0.2745
     26 N          64.1008   91.0294   13.5630 N.am    1  UNL1       -0.2546
     27 C          63.5004   91.0866   12.1895 C.3     1  UNL1        0.1249
     28 C          65.3390   91.5834   14.2033 C.ar    1  UNL1        0.0541
     29 C          66.6403   91.5677   13.4575 C.ar    1  UNL1        0.0146
     30 C          67.8784   92.1218   14.0978 C.ar    1  UNL1       -0.0030
     31 C          67.8153   92.6916   15.4840 C.ar    1  UNL1       -0.0227
     32 C          66.5139   92.7072   16.2297 C.ar    1  UNL1       -0.0030
     33 C          65.2758   92.1532   15.5894 C.ar    1  UNL1        0.0146
     34 C          69.0534   93.2456   16.1243 C.3     1  UNL1        0.0189
     35 C          68.6647   94.6253   15.6822 C.3     1  UNL1        0.0044
     36 C          69.4422   91.8660   16.5664 C.3     1  UNL1        0.0044
     37 C          70.2916   93.7997   16.7646 C.3     1  UNL1        0.0044
     38 C          63.8895   91.7217   10.8875 C.2     1  UNL1        0.0692
     39 O          65.1449   92.5377   10.7966 O.co2   1  UNL1       -0.5475
     40 O          63.0232   91.5409    9.6764 O.co2   1  UNL1       -0.5475
@<TRIPOS>UNITY_ATOM_ATTR
39 1
charge -1
@<TRIPOS>BOND
     1    10    11    1
     2    11    12   ar
     3    12    13   ar
     4    13    16    1
     5    16    17   ar
     6    17    18   ar
     7    18    19   ar
     8    19    20   ar
     9    20    21   ar
    10    13    14   ar
    11    14    15   ar
    12    15     9    1
    13     9     8    1
    14     8     7    1
    15     7     1    1
    16     1     2   ar
    17     2     3   ar
    18     3     4   ar
    19     4    22    1
    20    23    22    1
    21    23    24    1
    22    24    25    2
    23    24    26   am
    24    26    28    1
    25    28    29   ar
    26    29    30   ar
    27    30    31   ar
    28    31    34    1
    29    34    35    1
    30    34    36    1
    31    34    37    1
    32    31    32   ar
    33    32    33   ar
    34    26    27    1
    35    27    38    1
    36    38    39   ar
    37    38    40   ar
    38     4     5   ar
    39     5     6   ar
    40    15    11   ar
    41     6     1   ar
    42    21    16   ar
    43    27    23    1
    44    33    28   ar
@<TRIPOS>MOLECULE
*****
 40 44 0 0 0
SMALL
GASTEIGER

@<TRIPOS>ATOM
      1 C          62.5855   84.9173    9.7783 C.ar    1  UNL1        0.1385
      2 C          62.3461   85.0796   11.2501 C.ar    1  UNL1        0.0366
      3 C          62.1060   86.4442   11.8250 C.ar    1  UNL1       -0.0011
      4 C          62.1052   87.6463   10.9278 C.ar    1  UNL1       -0.0214
      5 C          62.3446   87.4840    9.4560 C.ar    1  UNL1       -0.0011
      6 C          62.5847   86.1194    8.8813 C.ar    1  UNL1        0.0366
      7 O          62.8256   83.5528    9.2035 O.3     1  UNL1       -0.4750
      8 C          63.9618   82.7147    9.7104 C.3     1  UNL1        0.2118
      9 C          63.7054   81.6349   10.7194 C.3     1  UNL1        0.0960
     10 C          62.4085   79.6433   12.9558 C.3     1  UNL1        0.0738
     11 C          62.7817   81.0808   13.1659 C.ar    1  UNL1        0.1387
     12 O          62.6245   81.8554   14.4407 O.2     1  UNL1       -0.4392
     13 C          63.1234   83.2495   14.2007 C.ar    1  UNL1        0.2289
     14 N          63.5890   83.3366   12.7775 N.ar    1  UNL1       -0.2129
     15 C          63.3779   81.9963   12.1379 C.ar    1  UNL1        0.0960
     16 C          63.1517   84.3613   15.2073 C.ar    1  UNL1        0.0535
     17 C          61.9838   84.5725   16.1245 C.ar    1  UNL1        0.0046
     18 C          62.0121   85.6843   17.1310 C.ar    1  UNL1        0.0002
     19 C          63.2083   86.5849   17.2203 C.ar    1  UNL1        0.0000
     20 C          64.3762   86.3737   16.3031 C.ar    1  UNL1        0.0002
     21 C          64.3479   85.2619   15.2966 C.ar    1  UNL1        0.0046
     22 C          61.8650   89.0109   11.5026 C.3     1  UNL1        0.0375
     23 C          62.9752   89.7349   12.2050 C.3     1  UNL1        0.1052
     24 C          63.6540   89.6004   13.5358 C.2     1  UNL1        0.2315
     25 O          63.5039   88.6864   14.7156 O.2     1  UNL1       -0.2745
     26 N          64.5453   90.7588   13.1983 N.am    1  UNL1       -0.2546
     27 C          63.8664   90.8932   11.8674 C.3     1  UNL1        0.1249
     28 C          65.6555   91.4828   13.9006 C.ar    1  UNL1        0.0541
     29 C          65.4474   92.0076   15.2902 C.ar    1  UNL1        0.0146
     30 C          66.5576   92.7316   15.9926 C.ar    1  UNL1       -0.0030
     31 C          67.8760   92.9308   15.3052 C.ar    1  UNL1       -0.0227
     32 C          68.0839   92.4059   13.9155 C.ar    1  UNL1       -0.0030
     33 C          66.9737   91.6820   13.2132 C.ar    1  UNL1        0.0146
     34 C          68.9862   93.6548   16.0076 C.3     1  UNL1        0.0189
     35 C          68.4068   94.9674   15.5703 C.3     1  UNL1        0.0044
     36 C          69.5655   92.3421   16.4448 C.3     1  UNL1        0.0044
     37 C          70.0963   94.3788   16.7099 C.3     1  UNL1        0.0044
     38 C          64.0167   91.8073   10.6876 C.2     1  UNL1        0.0692
     39 O          63.1222   91.6452    9.4944 O.co2   1  UNL1       -0.5475
     40 O          65.0614   92.8836   10.7010 O.co2   1  UNL1       -0.5475
@<TRIPOS>UNITY_ATOM_ATTR
39 1
charge -1
@<TRIPOS>BOND
     1    10    11    1
     2    11    12   ar
     3    12    13   ar
     4    13    16    1
     5    16    17   ar
     6    17    18   ar
     7    18    19   ar
     8    19    20   ar
     9    20    21   ar
    10    13    14   ar
    11    14    15   ar
    12    15     9    1
    13     9     8    1
    14     8     7    1
    15     7     1    1
    16     1     2   ar
    17     2     3   ar
    18     3     4   ar
    19     4    22    1
    20    23    22    1
    21    23    24    1
    22    24    25    2
    23    24    26   am
    24    26    28    1
    25    28    29   ar
    26    29    30   ar
    27    30    31   ar
    28    31    34    1
    29    34    35    1
    30    34    36    1
    31    34    37    1
    32    31    32   ar
    33    32    33   ar
    34    26    27    1
    35    27    38    1
    36    38    39   ar
    37    38    40   ar
    38     4     5   ar
    39     5     6   ar
    40    15    11   ar
    41     6     1   ar
    42    21    16   ar
    43    27    23    1
    44    33    28   ar
@<TRIPOS>MOLECULE
*****
 40 44 0 0 0
SMALL
GASTEIGER

@<TRIPOS>ATOM
      1 C          62.4033   85.1716    9.8725 C.ar    1  UNL1        0.1385
      2 C          62.1901   85.4927   11.3221 C.ar    1  UNL1        0.0366
      3 C          62.0527   86.9203   11.7618 C.ar    1  UNL1       -0.0011
      4 C          62.1286   88.0267   10.7517 C.ar    1  UNL1       -0.0214
      5 C          62.3419   87.7056    9.3021 C.ar    1  UNL1       -0.0011
      6 C          62.4793   86.2780    8.8626 C.ar    1  UNL1        0.0366
      7 O          62.5407   83.7441    9.4329 O.3     1  UNL1       -0.4750
      8 C          63.7115   82.9270    9.8929 C.3     1  UNL1        0.2118
      9 C          63.5064   81.8041   10.8660 C.3     1  UNL1        0.0960
     10 C          62.3958   79.6589   13.0601 C.3     1  UNL1        0.0738
     11 C          62.6489   81.1173   13.3028 C.ar    1  UNL1        0.1387
     12 O          62.4361   81.8457   14.5967 O.2     1  UNL1       -0.4392
     13 C          62.8150   83.2820   14.3878 C.ar    1  UNL1        0.2289
     14 N          63.2621   83.4412   12.9649 N.ar    1  UNL1       -0.2129
     15 C          63.1595   82.1034   12.2943 C.ar    1  UNL1        0.0960
     16 C          62.7571   84.3683   15.4206 C.ar    1  UNL1        0.0535
     17 C          64.0099   84.8061   16.1197 C.ar    1  UNL1        0.0046
     18 C          63.9518   85.8924   17.1524 C.ar    1  UNL1        0.0002
     19 C          62.6410   86.5408   17.4861 C.ar    1  UNL1        0.0000
     20 C          61.3882   86.1030   16.7870 C.ar    1  UNL1        0.0002
     21 C          61.4463   85.0167   15.7543 C.ar    1  UNL1        0.0046
     22 C          61.9912   89.4543   11.1914 C.3     1  UNL1        0.0375
     23 C          63.1044   90.1165   11.9479 C.3     1  UNL1        0.1052
     24 C          64.0601   91.2371   11.6638 C.2     1  UNL1        0.2315
     25 O          64.2987   92.1598   10.5054 O.2     1  UNL1       -0.2745
     26 N          64.6786   91.0529   13.0179 N.am    1  UNL1       -0.2546
     27 C          63.7228   89.9322   13.3020 C.3     1  UNL1        0.1249
     28 C          65.7918   91.7151   13.7745 C.ar    1  UNL1        0.0541
     29 C          67.1069   91.9728   13.1009 C.ar    1  UNL1        0.0146
     30 C          68.2201   92.6350   13.8574 C.ar    1  UNL1       -0.0030
     31 C          68.0180   93.0395   15.2877 C.ar    1  UNL1       -0.0227
     32 C          66.7028   92.7817   15.9613 C.ar    1  UNL1       -0.0030
     33 C          65.5897   92.1196   15.2047 C.ar    1  UNL1        0.0146
     34 C          69.1312   93.7017   16.0443 C.3     1  UNL1        0.0189
     35 C          68.6158   95.0466   15.6253 C.3     1  UNL1        0.0044
     36 C          69.6465   92.3568   16.4632 C.3     1  UNL1        0.0044
     37 C          70.2443   94.3639   16.8008 C.3     1  UNL1        0.0044
     38 C          63.4844   89.0096   14.4604 C.2     1  UNL1        0.0692
     39 O          62.6659   89.4703   15.6300 O.co2   1  UNL1       -0.5475
     40 O          64.0643   87.6264   14.4492 O.co2   1  UNL1       -0.5475
@<TRIPOS>UNITY_ATOM_ATTR
39 1
charge -1
@<TRIPOS>BOND
     1    10    11    1
     2    11    12   ar
     3    12    13   ar
     4    13    16    1
     5    16    17   ar
     6    17    18   ar
     7    18    19   ar
     8    19    20   ar
     9    20    21   ar
    10    13    14   ar
    11    14    15   ar
    12    15     9    1
    13     9     8    1
    14     8     7    1
    15     7     1    1
    16     1     2   ar
    17     2     3   ar
    18     3     4   ar
    19     4    22    1
    20    23    22    1
    21    23    24    1
    22    24    25    2
    23    24    26   am
    24    26    28    1
    25    28    29   ar
    26    29    30   ar
    27    30    31   ar
    28    31    34    1
    29    34    35    1
    30    34    36    1
    31    34    37    1
    32    31    32   ar
    33    32    33   ar
    34    26    27    1
    35    27    38    1
    36    38    39   ar
    37    38    40   ar
    38     4     5   ar
    39     5     6   ar
    40    15    11   ar
    41     6     1   ar
    42    21    16   ar
    43    27    23    1
    44    33    28   ar
