@<TRIPOS>MOLECULE
*****
 31 35 0 0 0
SMALL
GASTEIGER

@<TRIPOS>ATOM
      1 C          63.4601   85.1434   15.6693 C.3     1  UNL1        0.1128
      2 O          64.4750   84.2938   16.3750 O.3     1  UNL1       -0.3844
      3 H          64.2333   83.3588   16.2842 H       1  UNL1        0.2103
      4 O          63.4397   91.9335   16.7386 O.2     1  UNL1       -0.2745
      5 C          64.0466   91.1146   15.6382 C.2     1  UNL1        0.2302
      6 N          63.8999   89.6217   15.6460 N.am    1  UNL1       -0.2793
      7 C          63.1464   88.9480   16.7542 C.3     1  UNL1        0.0935
      8 C          62.9998   87.4551   16.7620 C.3     1  UNL1        0.0240
      9 C          63.6067   86.6362   15.6615 C.3     1  UNL1        0.0304
     10 C          64.3602   87.3100   14.5533 C.3     1  UNL1        0.0240
     11 C          64.5068   88.8028   14.5456 C.3     1  UNL1        0.0935
     12 C          64.8001   91.7884   14.5300 C.3     1  UNL1        0.1146
     13 C          66.2421   92.1558   14.7187 C.ar    1  UNL1        0.0253
     14 C          66.6992   92.7579   16.0142 C.ar    1  UNL1        0.0984
     15 N          68.1413   93.1253   16.2030 N.ar    1  UNL1       -0.2227
     16 C          69.1261   92.8905   15.0963 C.ar    1  UNL1        0.1989
     17 N          68.6690   92.2882   13.8007 N.ar    1  UNL1       -0.2227
     18 C          67.2270   91.9209   13.6119 C.ar    1  UNL1        0.0984
     19 C          62.2985   84.5002   14.9712 C.3     1  UNL1        0.0564
     20 C          62.4658   83.9545   13.5840 C.3     1  UNL1        0.1119
     21 C          62.4851   84.7574   12.3171 C.ar    1  UNL1       -0.0002
     22 C          62.3547   86.2293   12.0596 C.ar    1  UNL1       -0.0024
     23 C          62.4137   86.7531   10.6553 C.ar    1  UNL1       -0.0003
     24 C          62.6029   85.8049    9.5085 C.ar    1  UNL1        0.0000
     25 C          62.7333   84.3330    9.7660 C.ar    1  UNL1        0.0012
     26 C          62.6743   83.8092   11.1703 C.ar    1  UNL1        0.0152
     27 C          62.7720   82.4203   11.7285 C.ar    1  UNL1        0.0804
     28 C          62.9494   80.9759   11.3646 C.ar    1  UNL1        0.1177
     29 N          62.9301   80.1731   12.6316 N.ar    1  UNL1       -0.2223
     30 C          62.7408   81.1213   13.7784 C.ar    1  UNL1        0.1788
     31 N          62.6431   82.5101   13.2202 N.ar    1  UNL1       -0.3069
@<TRIPOS>BOND
     1     4     5    2
     2     5    12    1
     3    12    13    1
     4    13    14   ar
     5    14    15   ar
     6    15    16   ar
     7    16    17   ar
     8    17    18   ar
     9     5     6   am
    10     6     7    1
    11     7     8    1
    12     8     9    1
    13     9     1    1
    14     1     2    1
    15     1    19    1
    16    19    20    1
    17    20    21    1
    18    21    22   ar
    19    22    23   ar
    20    23    24   ar
    21    24    25   ar
    22    25    26   ar
    23    26    27    1
    24    27    28   ar
    25    28    29   ar
    26    29    30   ar
    27    30    31   ar
    28     9    10    1
    29    10    11    1
    30    18    13   ar
    31    11     6    1
    32    31    20    1
    33    26    21   ar
    34    31    27   ar
    35     2     3    1
@<TRIPOS>MOLECULE
*****
 31 35 0 0 0
SMALL
GASTEIGER

@<TRIPOS>ATOM
      1 C          64.1853   90.6350   15.5990 C.3     1  UNL1        0.1128
      2 O          63.2917   91.5325   16.4027 O.3     1  UNL1       -0.3844
      3 H          63.5514   92.4566   16.2631 H       1  UNL1        0.2103
      4 O          62.4230   84.0886   16.7338 O.2     1  UNL1       -0.2745
      5 C          63.4022   84.6888   15.7690 C.2     1  UNL1        0.2302
      6 N          63.5979   86.1754   15.7266 N.am    1  UNL1       -0.2793
      7 C          62.8145   87.0617   16.6489 C.3     1  UNL1        0.0935
      8 C          63.0103   88.5482   16.6063 C.3     1  UNL1        0.0240
      9 C          63.9895   89.1484   15.6415 C.3     1  UNL1        0.0304
     10 C          64.7730   88.2622   14.7192 C.3     1  UNL1        0.0240
     11 C          64.5772   86.7756   14.7617 C.3     1  UNL1        0.0935
     12 C          64.1856   83.8024   14.8467 C.3     1  UNL1        0.1146
     13 C          63.9072   83.8207   13.3729 C.ar    1  UNL1        0.0253
     14 C          64.7911   83.0554   12.4332 C.ar    1  UNL1        0.0984
     15 N          64.5128   83.0736   10.9594 N.ar    1  UNL1       -0.2227
     16 C          63.3505   83.8571   10.4253 C.ar    1  UNL1        0.1989
     17 N          62.4665   84.6224   11.3650 N.ar    1  UNL1       -0.2227
     18 C          62.7449   84.6042   12.8388 C.ar    1  UNL1        0.0984
     19 C          65.2748   91.2241   14.7527 C.3     1  UNL1        0.0564
     20 C          64.9849   91.6437   13.3421 C.3     1  UNL1        0.1119
     21 C          64.0275   90.9731   12.4019 C.ar    1  UNL1       -0.0002
     22 C          63.1364   89.7771   12.5611 C.ar    1  UNL1       -0.0024
     23 C          62.2701   89.3303   11.4209 C.ar    1  UNL1       -0.0003
     24 C          62.2949   90.0796   10.1217 C.ar    1  UNL1        0.0000
     25 C          63.1860   91.2757    9.9626 C.ar    1  UNL1        0.0012
     26 C          64.0523   91.7224   11.1027 C.ar    1  UNL1        0.0152
     27 C          65.0250   92.8560   11.2400 C.ar    1  UNL1        0.0804
     28 C          65.6415   94.0198   10.5217 C.ar    1  UNL1        0.1177
     29 N          66.5989   94.6902   11.4620 N.ar    1  UNL1       -0.2223
     30 C          66.5741   93.9410   12.7612 C.ar    1  UNL1        0.1788
     31 N          65.6014   92.8073   12.6240 N.ar    1  UNL1       -0.3069
@<TRIPOS>BOND
     1     4     5    2
     2     5    12    1
     3    12    13    1
     4    13    14   ar
     5    14    15   ar
     6    15    16   ar
     7    16    17   ar
     8    17    18   ar
     9     5     6   am
    10     6     7    1
    11     7     8    1
    12     8     9    1
    13     9     1    1
    14     1     2    1
    15     1    19    1
    16    19    20    1
    17    20    21    1
    18    21    22   ar
    19    22    23   ar
    20    23    24   ar
    21    24    25   ar
    22    25    26   ar
    23    26    27    1
    24    27    28   ar
    25    28    29   ar
    26    29    30   ar
    27    30    31   ar
    28     9    10    1
    29    10    11    1
    30    18    13   ar
    31    11     6    1
    32    31    20    1
    33    26    21   ar
    34    31    27   ar
    35     2     3    1
@<TRIPOS>MOLECULE
*****
 31 35 0 0 0
SMALL
GASTEIGER

@<TRIPOS>ATOM
      1 C          63.5305   85.2451   15.6906 C.3     1  UNL1        0.1128
      2 O          64.5833   84.4084   16.3550 O.3     1  UNL1       -0.3844
      3 H          64.3539   83.4700   16.2669 H       1  UNL1        0.2103
      4 O          63.3932   92.0312   16.7765 O.2     1  UNL1       -0.2745
      5 C          64.0179   91.2252   15.6765 C.2     1  UNL1        0.2302
      6 N          63.8960   89.7301   15.6801 N.am    1  UNL1       -0.2793
      7 C          63.1495   89.0412   16.7837 C.3     1  UNL1        0.0935
      8 C          63.0276   87.5461   16.7872 C.3     1  UNL1        0.0240
      9 C          63.6523   86.7401   15.6871 C.3     1  UNL1        0.0304
     10 C          64.3989   87.4291   14.5835 C.3     1  UNL1        0.0240
     11 C          64.5207   88.9241   14.5800 C.3     1  UNL1        0.0935
     12 C          64.7644   91.9143   14.5729 C.3     1  UNL1        0.1146
     13 C          66.2252   92.2164   14.7303 C.ar    1  UNL1        0.0253
     14 C          67.1690   91.9699   13.5908 C.ar    1  UNL1        0.0984
     15 N          68.6298   92.2720   13.7481 N.ar    1  UNL1       -0.2227
     16 C          69.1468   92.8205   15.0450 C.ar    1  UNL1        0.1989
     17 N          68.2030   93.0670   16.1846 N.ar    1  UNL1       -0.2227
     18 C          66.7422   92.7649   16.0272 C.ar    1  UNL1        0.0984
     19 C          62.3558   84.5867   15.0297 C.3     1  UNL1        0.0564
     20 C          62.4784   84.0660   13.6284 C.3     1  UNL1        0.1119
     21 C          62.5826   82.6237   13.2297 C.ar    1  UNL1       -0.0002
     22 C          62.5961   81.3582   14.0350 C.ar    1  UNL1       -0.0024
     23 C          62.7138   80.0315   13.3452 C.ar    1  UNL1       -0.0003
     24 C          62.8180   79.9702   11.8501 C.ar    1  UNL1        0.0000
     25 C          62.8046   81.2356   11.0448 C.ar    1  UNL1        0.0012
     26 C          62.6869   82.5624   11.7346 C.ar    1  UNL1        0.0152
     27 C          62.6471   83.9668   11.2093 C.ar    1  UNL1        0.0804
     28 C          62.6869   84.7969    9.9604 C.ar    1  UNL1        0.1177
     29 N          62.5827   86.2392   10.3591 N.ar    1  UNL1       -0.2223
     30 C          62.4784   86.3005   11.8543 C.ar    1  UNL1        0.1788
     31 N          62.5182   84.8961   12.3796 N.ar    1  UNL1       -0.3069
@<TRIPOS>BOND
     1     4     5    2
     2     5    12    1
     3    12    13    1
     4    13    14   ar
     5    14    15   ar
     6    15    16   ar
     7    16    17   ar
     8    17    18   ar
     9     5     6   am
    10     6     7    1
    11     7     8    1
    12     8     9    1
    13     9     1    1
    14     1     2    1
    15     1    19    1
    16    19    20    1
    17    20    21    1
    18    21    22   ar
    19    22    23   ar
    20    23    24   ar
    21    24    25   ar
    22    25    26   ar
    23    26    27    1
    24    27    28   ar
    25    28    29   ar
    26    29    30   ar
    27    30    31   ar
    28     9    10    1
    29    10    11    1
    30    18    13   ar
    31    11     6    1
    32    31    20    1
    33    26    21   ar
    34    31    27   ar
    35     2     3    1
@<TRIPOS>MOLECULE
*****
 31 35 0 0 0
SMALL
GASTEIGER

@<TRIPOS>ATOM
      1 C          60.7425   90.0318   11.1063 C.3     1  UNL1        0.1128
      2 O          59.6970   90.8646   10.4256 O.3     1  UNL1       -0.3844
      3 H          58.8739   90.3562   10.3555 H       1  UNL1        0.2103
      4 O          66.7804   92.3594   13.4250 O.2     1  UNL1       -0.2745
      5 C          66.2301   92.2744   12.0322 C.2     1  UNL1        0.2302
      6 N          64.8581   91.7137   11.8008 N.am    1  UNL1       -0.2793
      7 C          64.0366   91.2381   12.9621 C.3     1  UNL1        0.0935
      8 C          62.6647   90.6774   12.7306 C.3     1  UNL1        0.0240
      9 C          62.1144   90.5924   11.3378 C.3     1  UNL1        0.0304
     10 C          62.9359   91.0681   10.1765 C.3     1  UNL1        0.0240
     11 C          64.3078   91.6288   10.4080 C.3     1  UNL1        0.0935
     12 C          67.0517   92.7501   10.8709 C.3     1  UNL1        0.1146
     13 C          66.8227   94.1185   10.3006 C.ar    1  UNL1        0.0253
     14 C          67.5693   94.5547    9.0750 C.ar    1  UNL1        0.0984
     15 N          67.3403   95.9231    8.5047 N.ar    1  UNL1       -0.2227
     16 C          66.3648   96.8551    9.1601 C.ar    1  UNL1        0.1989
     17 N          65.6181   96.4189   10.3858 N.ar    1  UNL1       -0.2227
     18 C          65.8471   95.0505   10.9560 C.ar    1  UNL1        0.0984
     19 C          60.4162   88.6383   11.5556 C.3     1  UNL1        0.0564
     20 C          60.8065   87.4655   10.7056 C.3     1  UNL1        0.1119
     21 C          61.7730   86.3835   11.0865 C.ar    1  UNL1       -0.0002
     22 C          62.5831   86.1526   12.3277 C.ar    1  UNL1       -0.0024
     23 C          63.4828   84.9563   12.4242 C.ar    1  UNL1       -0.0003
     24 C          63.5724   83.9909   11.2797 C.ar    1  UNL1        0.0000
     25 C          62.7624   84.2219   10.0385 C.ar    1  UNL1        0.0012
     26 C          61.8627   85.4182    9.9420 C.ar    1  UNL1        0.0152
     27 C          60.9516   85.9036    8.8537 C.ar    1  UNL1        0.0804
     28 C          60.4439   85.6069    7.4737 C.ar    1  UNL1        0.1177
     29 N          59.4774   86.6890    7.0929 N.ar    1  UNL1       -0.2223
     30 C          59.3877   87.6543    8.2375 C.ar    1  UNL1        0.1788
     31 N          60.2988   87.1689    9.3257 N.ar    1  UNL1       -0.3069
@<TRIPOS>BOND
     1     4     5    2
     2     5    12    1
     3    12    13    1
     4    13    14   ar
     5    14    15   ar
     6    15    16   ar
     7    16    17   ar
     8    17    18   ar
     9     5     6   am
    10     6     7    1
    11     7     8    1
    12     8     9    1
    13     9     1    1
    14     1     2    1
    15     1    19    1
    16    19    20    1
    17    20    21    1
    18    21    22   ar
    19    22    23   ar
    20    23    24   ar
    21    24    25   ar
    22    25    26   ar
    23    26    27    1
    24    27    28   ar
    25    28    29   ar
    26    29    30   ar
    27    30    31   ar
    28     9    10    1
    29    10    11    1
    30    18    13   ar
    31    11     6    1
    32    31    20    1
    33    26    21   ar
    34    31    27   ar
    35     2     3    1
@<TRIPOS>MOLECULE
*****
 31 35 0 0 0
SMALL
GASTEIGER

@<TRIPOS>ATOM
      1 C          61.0384   88.5709   10.7707 C.3     1  UNL1        0.1128
      2 O          60.0988   89.1888    9.7781 O.3     1  UNL1       -0.3844
      3 H          59.4546   88.5249    9.4861 H       1  UNL1        0.2103
      4 O          66.1608   91.3614   14.4071 O.2     1  UNL1       -0.2745
      5 C          65.4269   91.8638   13.1992 C.2     1  UNL1        0.2302
      6 N          64.3298   91.0405   12.5921 N.am    1  UNL1       -0.2793
      7 C          63.9666   89.7149   13.1929 C.3     1  UNL1        0.0935
      8 C          62.8695   88.8917   12.5857 C.3     1  UNL1        0.0240
      9 C          62.1356   89.3941   11.3779 C.3     1  UNL1        0.0304
     10 C          62.4987   90.7197   10.7771 C.3     1  UNL1        0.0240
     11 C          63.5958   91.5429   11.3843 C.3     1  UNL1        0.0935
     12 C          65.7901   93.1894   12.5986 C.3     1  UNL1        0.1146
     13 C          66.6237   93.2451   11.3528 C.ar    1  UNL1        0.0253
     14 C          67.7455   92.2689   11.1568 C.ar    1  UNL1        0.0984
     15 N          68.5792   92.3246    9.9110 N.ar    1  UNL1       -0.2227
     16 C          68.2910   93.3565    8.8613 C.ar    1  UNL1        0.1989
     17 N          67.1691   94.3328    9.0572 N.ar    1  UNL1       -0.2227
     18 C          66.3355   94.2771   10.3030 C.ar    1  UNL1        0.0984
     19 C          60.8810   87.1298   11.1562 C.3     1  UNL1        0.0564
     20 C          61.6841   86.0740   10.4560 C.3     1  UNL1        0.1119
     21 C          62.6578   85.1335   11.1021 C.ar    1  UNL1       -0.0002
     22 C          63.0971   84.9662   12.5265 C.ar    1  UNL1       -0.0024
     23 C          64.1088   83.9170   12.8809 C.ar    1  UNL1       -0.0003
     24 C          64.6811   83.0351   11.8110 C.ar    1  UNL1        0.0000
     25 C          64.2417   83.2025   10.3866 C.ar    1  UNL1        0.0012
     26 C          63.2301   84.2517   10.0322 C.ar    1  UNL1        0.0152
     27 C          62.6102   84.6472    8.7248 C.ar    1  UNL1        0.0804
     28 C          62.5808   84.3466    7.2554 C.ar    1  UNL1        0.1177
     29 N          61.6071   85.2872    6.6093 N.ar    1  UNL1       -0.2223
     30 C          61.0348   86.1690    7.6793 C.ar    1  UNL1        0.1788
     31 N          61.6547   85.7735    8.9867 N.ar    1  UNL1       -0.3069
@<TRIPOS>BOND
     1     4     5    2
     2     5    12    1
     3    12    13    1
     4    13    14   ar
     5    14    15   ar
     6    15    16   ar
     7    16    17   ar
     8    17    18   ar
     9     5     6   am
    10     6     7    1
    11     7     8    1
    12     8     9    1
    13     9     1    1
    14     1     2    1
    15     1    19    1
    16    19    20    1
    17    20    21    1
    18    21    22   ar
    19    22    23   ar
    20    23    24   ar
    21    24    25   ar
    22    25    26   ar
    23    26    27    1
    24    27    28   ar
    25    28    29   ar
    26    29    30   ar
    27    30    31   ar
    28     9    10    1
    29    10    11    1
    30    18    13   ar
    31    11     6    1
    32    31    20    1
    33    26    21   ar
    34    31    27   ar
    35     2     3    1
@<TRIPOS>MOLECULE
*****
 31 35 0 0 0
SMALL
GASTEIGER

@<TRIPOS>ATOM
      1 C          63.3841   85.0762   15.7487 C.3     1  UNL1        0.1128
      2 O          64.3313   84.2135   16.5288 O.3     1  UNL1       -0.3844
      3 H          64.0592   83.2854   16.4546 H       1  UNL1        0.2103
      4 O          63.5377   91.8969   16.5878 O.2     1  UNL1       -0.2745
      5 C          64.1958   91.0182   15.5656 C.2     1  UNL1        0.2302
      6 N          63.9928   89.5326   15.6114 N.am    1  UNL1       -0.2793
      7 C          63.1319   88.9259   16.6794 C.3     1  UNL1        0.0935
      8 C          62.9290   87.4404   16.7251 C.3     1  UNL1        0.0240
      9 C          63.5870   86.5617   15.7029 C.3     1  UNL1        0.0304
     10 C          64.4479   87.1684   14.6350 C.3     1  UNL1        0.0240
     11 C          64.6508   88.6539   14.5892 C.3     1  UNL1        0.0935
     12 C          65.0567   91.6250   14.4976 C.3     1  UNL1        0.1146
     13 C          64.5819   91.6486   13.0749 C.ar    1  UNL1        0.0253
     14 C          65.3660   92.3927   12.0350 C.ar    1  UNL1        0.0984
     15 N          64.8913   92.4164   10.6122 N.ar    1  UNL1       -0.2227
     16 C          63.6326   91.6960   10.2295 C.ar    1  UNL1        0.1989
     17 N          62.8484   90.9519   11.2695 N.ar    1  UNL1       -0.2227
     18 C          63.3232   90.9282   12.6922 C.ar    1  UNL1        0.0984
     19 C          62.2339   84.4533   15.0143 C.3     1  UNL1        0.0564
     20 C          62.4257   83.9388   13.6184 C.3     1  UNL1        0.1119
     21 C          62.4479   84.7678   12.3685 C.ar    1  UNL1       -0.0002
     22 C          62.2986   86.2427   12.1395 C.ar    1  UNL1       -0.0024
     23 C          62.3663   86.7961   10.7470 C.ar    1  UNL1       -0.0003
     24 C          62.5833   85.8747    9.5835 C.ar    1  UNL1        0.0000
     25 C          62.7326   84.3998    9.8124 C.ar    1  UNL1        0.0012
     26 C          62.6649   83.8464   11.2049 C.ar    1  UNL1        0.0152
     27 C          62.7768   82.4479   11.7357 C.ar    1  UNL1        0.0804
     28 C          62.9800   81.0141   11.3446 C.ar    1  UNL1        0.1177
     29 N          62.9578   80.1851   12.5946 N.ar    1  UNL1       -0.2223
     30 C          62.7408   81.1065   13.7582 C.ar    1  UNL1        0.1788
     31 N          62.6289   82.5050   13.2273 N.ar    1  UNL1       -0.3069
@<TRIPOS>BOND
     1     4     5    2
     2     5    12    1
     3    12    13    1
     4    13    14   ar
     5    14    15   ar
     6    15    16   ar
     7    16    17   ar
     8    17    18   ar
     9     5     6   am
    10     6     7    1
    11     7     8    1
    12     8     9    1
    13     9     1    1
    14     1     2    1
    15     1    19    1
    16    19    20    1
    17    20    21    1
    18    21    22   ar
    19    22    23   ar
    20    23    24   ar
    21    24    25   ar
    22    25    26   ar
    23    26    27    1
    24    27    28   ar
    25    28    29   ar
    26    29    30   ar
    27    30    31   ar
    28     9    10    1
    29    10    11    1
    30    18    13   ar
    31    11     6    1
    32    31    20    1
    33    26    21   ar
    34    31    27   ar
    35     2     3    1
@<TRIPOS>MOLECULE
*****
 31 35 0 0 0
SMALL
GASTEIGER

@<TRIPOS>ATOM
      1 C          60.7389   88.5469   10.0274 C.3     1  UNL1        0.1128
      2 O          59.8766   89.1628    8.9657 O.3     1  UNL1       -0.3844
      3 H          59.2466   88.5024    8.6374 H       1  UNL1        0.2103
      4 O          65.4692   93.0920   12.0804 O.2     1  UNL1       -0.2745
      5 C          64.9870   91.8218   12.7159 C.2     1  UNL1        0.2302
      6 N          63.9249   91.0030   12.0437 N.am    1  UNL1       -0.2793
      7 C          63.3452   91.4546   10.7361 C.3     1  UNL1        0.0935
      8 C          62.2831   90.6359   10.0640 C.3     1  UNL1        0.0240
      9 C          61.8009   89.3656   10.6995 C.3     1  UNL1        0.0304
     10 C          62.3807   88.9140   12.0071 C.3     1  UNL1        0.0240
     11 C          63.4427   89.7328   12.6792 C.3     1  UNL1        0.0935
     12 C          65.5668   91.3702   14.0235 C.3     1  UNL1        0.1146
     13 C          66.7537   92.0812   14.6030 C.ar    1  UNL1        0.0253
     14 C          68.0824   92.0096   13.9106 C.ar    1  UNL1        0.0984
     15 N          69.2694   92.7205   14.4900 N.ar    1  UNL1       -0.2227
     16 C          69.1276   93.5029   15.7619 C.ar    1  UNL1        0.1989
     17 N          67.7989   93.5745   16.4544 N.ar    1  UNL1       -0.2227
     18 C          66.6120   92.8636   15.8749 C.ar    1  UNL1        0.0984
     19 C          60.5391   87.1121   10.4170 C.3     1  UNL1        0.0564
     20 C          61.4514   86.0531    9.8726 C.3     1  UNL1        0.1119
     21 C          62.4159   85.2256   10.6695 C.ar    1  UNL1       -0.0002
     22 C          62.7439   85.1978   12.1328 C.ar    1  UNL1       -0.0024
     23 C          63.7761   84.2412   12.6520 C.ar    1  UNL1       -0.0003
     24 C          64.4802   83.3124   11.7077 C.ar    1  UNL1        0.0000
     25 C          64.1521   83.3402   10.2443 C.ar    1  UNL1        0.0012
     26 C          63.1199   84.2968    9.7252 C.ar    1  UNL1        0.0152
     27 C          62.5905   84.5503    8.3448 C.ar    1  UNL1        0.0804
     28 C          62.6986   84.1329    6.9080 C.ar    1  UNL1        0.1177
     29 N          61.7340   84.9605    6.1112 N.ar    1  UNL1       -0.2223
     30 C          61.0300   85.8893    7.0555 C.ar    1  UNL1        0.1788
     31 N          61.5593   85.6358    8.4359 N.ar    1  UNL1       -0.3069
@<TRIPOS>BOND
     1     4     5    2
     2     5    12    1
     3    12    13    1
     4    13    14   ar
     5    14    15   ar
     6    15    16   ar
     7    16    17   ar
     8    17    18   ar
     9     5     6   am
    10     6     7    1
    11     7     8    1
    12     8     9    1
    13     9     1    1
    14     1     2    1
    15     1    19    1
    16    19    20    1
    17    20    21    1
    18    21    22   ar
    19    22    23   ar
    20    23    24   ar
    21    24    25   ar
    22    25    26   ar
    23    26    27    1
    24    27    28   ar
    25    28    29   ar
    26    29    30   ar
    27    30    31   ar
    28     9    10    1
    29    10    11    1
    30    18    13   ar
    31    11     6    1
    32    31    20    1
    33    26    21   ar
    34    31    27   ar
    35     2     3    1
@<TRIPOS>MOLECULE
*****
 31 35 0 0 0
SMALL
GASTEIGER

@<TRIPOS>ATOM
      1 C          61.1764   88.8788   11.0847 C.3     1  UNL1        0.1128
      2 O          60.2607   89.4295   10.0320 O.3     1  UNL1       -0.3844
      3 H          59.5961   88.7620    9.8002 H       1  UNL1        0.2103
      4 O          66.3679   91.8417   14.4787 O.2     1  UNL1       -0.2745
      5 C          65.6621   92.2445   13.2179 C.2     1  UNL1        0.2302
      6 N          64.5407   91.4030   12.6846 N.am    1  UNL1       -0.2793
      7 C          64.1251   90.1589   13.4121 C.3     1  UNL1        0.0935
      8 C          63.0036   89.3175   12.8788 C.3     1  UNL1        0.0240
      9 C          62.2979   89.7202   11.6180 C.3     1  UNL1        0.0304
     10 C          62.7134   90.9644   10.8905 C.3     1  UNL1        0.0240
     11 C          63.8349   91.8058   11.4238 C.3     1  UNL1        0.0935
     12 C          66.0778   93.4886   12.4904 C.3     1  UNL1        0.1146
     13 C          66.8194   93.3851   11.1907 C.ar    1  UNL1        0.0253
     14 C          66.7461   94.5039   10.1942 C.ar    1  UNL1        0.0984
     15 N          67.4877   94.4004    8.8944 N.ar    1  UNL1       -0.2227
     16 C          68.3027   93.1782    8.5913 C.ar    1  UNL1        0.1989
     17 N          68.3761   92.0594    9.5878 N.ar    1  UNL1       -0.2227
     18 C          67.6344   92.1629   10.8875 C.ar    1  UNL1        0.0984
     19 C          60.9707   87.4866   11.6041 C.3     1  UNL1        0.0564
     20 C          61.8008   86.3568   11.0706 C.3     1  UNL1        0.1119
     21 C          61.8544   85.8999    9.6429 C.ar    1  UNL1       -0.0002
     22 C          61.1569   86.3851    8.4069 C.ar    1  UNL1       -0.0024
     23 C          61.4146   85.7168    7.0890 C.ar    1  UNL1       -0.0003
     24 C          62.3699   84.5632    7.0072 C.ar    1  UNL1        0.0000
     25 C          63.0674   84.0780    8.2432 C.ar    1  UNL1        0.0012
     26 C          62.8097   84.7463    9.5611 C.ar    1  UNL1        0.0152
     27 C          63.3464   84.4903   10.9382 C.ar    1  UNL1        0.0804
     28 C          64.2686   83.6191   11.7388 C.ar    1  UNL1        0.1177
     29 N          64.2148   84.0762   13.1665 N.ar    1  UNL1       -0.2223
     30 C          63.2596   85.2298   13.2483 C.ar    1  UNL1        0.1788
     31 N          62.7229   85.4857   11.8712 N.ar    1  UNL1       -0.3069
@<TRIPOS>BOND
     1     4     5    2
     2     5    12    1
     3    12    13    1
     4    13    14   ar
     5    14    15   ar
     6    15    16   ar
     7    16    17   ar
     8    17    18   ar
     9     5     6   am
    10     6     7    1
    11     7     8    1
    12     8     9    1
    13     9     1    1
    14     1     2    1
    15     1    19    1
    16    19    20    1
    17    20    21    1
    18    21    22   ar
    19    22    23   ar
    20    23    24   ar
    21    24    25   ar
    22    25    26   ar
    23    26    27    1
    24    27    28   ar
    25    28    29   ar
    26    29    30   ar
    27    30    31   ar
    28     9    10    1
    29    10    11    1
    30    18    13   ar
    31    11     6    1
    32    31    20    1
    33    26    21   ar
    34    31    27   ar
    35     2     3    1
@<TRIPOS>MOLECULE
*****
 31 35 0 0 0
SMALL
GASTEIGER

@<TRIPOS>ATOM
      1 C          62.0381   87.1608   11.5267 C.3     1  UNL1        0.1128
      2 O          60.5391   87.1223   11.5655 O.3     1  UNL1       -0.3844
      3 H          60.2343   86.2177   11.3936 H       1  UNL1        0.2103
      4 O          65.5595   92.6056   13.8076 O.2     1  UNL1       -0.2745
      5 C          64.9321   92.3307   12.4732 C.2     1  UNL1        0.2302
      6 N          64.2086   91.0382   12.2366 N.am    1  UNL1       -0.2793
      7 C          64.1125   90.0206   13.3344 C.3     1  UNL1        0.0935
      8 C          63.3890   88.7281   13.0978 C.3     1  UNL1        0.0240
      9 C          62.7616   88.4533   11.7633 C.3     1  UNL1        0.0304
     10 C          62.8577   89.4708   10.6655 C.3     1  UNL1        0.0240
     11 C          63.5812   90.7633   10.9021 C.3     1  UNL1        0.0935
     12 C          65.0282   93.3483   11.3754 C.3     1  UNL1        0.1146
     13 C          66.2802   93.4512   10.5556 C.ar    1  UNL1        0.0253
     14 C          66.5157   94.6566    9.6945 C.ar    1  UNL1        0.0984
     15 N          67.7677   94.7596    8.8747 N.ar    1  UNL1       -0.2227
     16 C          68.7840   93.6572    8.9161 C.ar    1  UNL1        0.1989
     17 N          68.5485   92.4517    9.7773 N.ar    1  UNL1       -0.2227
     18 C          67.2965   92.3488   10.5970 C.ar    1  UNL1        0.0984
     19 C          62.8136   85.9066   11.2511 C.3     1  UNL1        0.0564
     20 C          63.0416   84.9095   12.3483 C.3     1  UNL1        0.1119
     21 C          62.9553   83.4179   12.2160 C.ar    1  UNL1       -0.0002
     22 C          62.6415   82.5303   11.0482 C.ar    1  UNL1       -0.0024
     23 C          62.6287   81.0404   11.2208 C.ar    1  UNL1       -0.0003
     24 C          62.9298   80.4380   12.5611 C.ar    1  UNL1        0.0000
     25 C          63.2436   81.3255   13.7289 C.ar    1  UNL1        0.0012
     26 C          63.2564   82.8155   13.5563 C.ar    1  UNL1        0.0152
     27 C          63.5287   83.9348   14.5170 C.ar    1  UNL1        0.0804
     28 C          63.8831   84.2543   15.9392 C.ar    1  UNL1        0.1177
     29 N          63.9694   85.7460   16.0714 N.ar    1  UNL1       -0.2223
     30 C          63.6684   86.3484   14.7311 C.ar    1  UNL1        0.1788
     31 N          63.3960   85.2290   13.7704 N.ar    1  UNL1       -0.3069
@<TRIPOS>BOND
     1     4     5    2
     2     5    12    1
     3    12    13    1
     4    13    14   ar
     5    14    15   ar
     6    15    16   ar
     7    16    17   ar
     8    17    18   ar
     9     5     6   am
    10     6     7    1
    11     7     8    1
    12     8     9    1
    13     9     1    1
    14     1     2    1
    15     1    19    1
    16    19    20    1
    17    20    21    1
    18    21    22   ar
    19    22    23   ar
    20    23    24   ar
    21    24    25   ar
    22    25    26   ar
    23    26    27    1
    24    27    28   ar
    25    28    29   ar
    26    29    30   ar
    27    30    31   ar
    28     9    10    1
    29    10    11    1
    30    18    13   ar
    31    11     6    1
    32    31    20    1
    33    26    21   ar
    34    31    27   ar
    35     2     3    1
