@<TRIPOS>MOLECULE
*****
 33 36 0 0 0
SMALL
GASTEIGER

@<TRIPOS>ATOM
      1 C          61.0987   89.3261   10.6086 C.ar    1  UNL1        0.1391
      2 C          61.5090   90.2154    9.4725 C.ar    1  UNL1        0.0369
      3 C          62.6712   91.1498    9.6334 C.ar    1  UNL1        0.0031
      4 C          63.4232   91.1950   10.9305 C.ar    1  UNL1       -0.0001
      5 C          64.5855   92.1295   11.0914 C.ar    1  UNL1       -0.0024
      6 C          65.3376   92.1747   12.3885 C.ar    1  UNL1       -0.0004
      7 C          64.9273   91.2853   13.5247 C.ar    1  UNL1       -0.0024
      8 C          63.7650   90.3509   13.3637 C.ar    1  UNL1       -0.0002
      9 C          63.0130   90.3057   12.0667 C.ar    1  UNL1        0.0030
     10 C          61.8508   89.3713   11.9057 C.ar    1  UNL1        0.0369
     11 O          59.9364   88.3916   10.4477 O.3     1  UNL1       -0.4706
     12 C          60.0779   87.1562    9.6089 C.3     1  UNL1        0.2320
     13 C          63.2403   84.1126   10.6014 C.ar    1  UNL1        0.0756
     14 C          62.4219   84.7284   11.6973 C.ar    1  UNL1        0.0062
     15 C          61.3678   85.7429   11.3665 C.ar    1  UNL1       -0.0005
     16 C          61.1321   86.1416    9.9398 C.ar    1  UNL1        0.0212
     17 C          61.9505   85.5258    8.8439 C.ar    1  UNL1       -0.0005
     18 C          63.0046   84.5113    9.1748 C.ar    1  UNL1        0.0062
     19 C          64.2945   83.0980   10.9323 C.2     1  UNL1        0.3413
     20 O          64.9568   82.3193    9.8346 O.2     1  UNL1       -0.2449
     21 C          64.0070   81.7878   13.1573 C.3     1  UNL1        0.2560
     22 O          64.6863   82.8621   12.3609 O.3     1  UNL1       -0.4413
     23 C          66.4998   93.1091   12.5494 C.3     1  UNL1        0.1240
     24 N          67.3415   93.0526   13.7898 N.ar    1  UNL1       -0.3045
     25 C          67.1818   93.9189   15.0038 C.ar    1  UNL1        0.0983
     26 C          68.2322   93.5216   15.9983 C.ar    1  UNL1        0.1193
     27 N          69.0410   92.4097   15.3988 N.ar    1  UNL1       -0.2223
     28 C          68.4905   92.1198   14.0339 C.ar    1  UNL1        0.1788
     29 C          66.8205   94.1001   11.4700 C.3     1  UNL1        0.0827
     30 C          66.3323   95.5141   11.5808 C.3     1  UNL1        0.0197
     31 N          67.6294   93.6771   10.2797 N.3     1  UNL1       -0.2696
     32 C          68.2257   92.3017   10.2287 C.3     1  UNL1        0.0897
     33 C          67.8420   94.6295    9.1405 C.3     1  UNL1        0.0897
@<TRIPOS>BOND
     1    21    22    1
     2    22    19    1
     3    19    20    2
     4    19    13    1
     5    13    14   ar
     6    14    15   ar
     7    15    16   ar
     8    16    12    1
     9    12    11    1
    10    11     1    1
    11     1     2   ar
    12     2     3   ar
    13     3     4   ar
    14     4     5   ar
    15     5     6   ar
    16     6    23    1
    17    23    29    1
    18    29    30    1
    19    29    31    1
    20    31    32    1
    21    31    33    1
    22    23    24    1
    23    24    25   ar
    24    25    26   ar
    25    26    27   ar
    26    27    28   ar
    27     6     7   ar
    28     7     8   ar
    29     8     9   ar
    30     9    10   ar
    31    16    17   ar
    32    17    18   ar
    33    18    13   ar
    34    10     1   ar
    35     9     4   ar
    36    28    24   ar
@<TRIPOS>MOLECULE
*****
 33 36 0 0 0
SMALL
GASTEIGER

@<TRIPOS>ATOM
      1 C          61.0386   89.1787   11.0591 C.ar    1  UNL1        0.1391
      2 C          61.4534   89.0869   12.4976 C.ar    1  UNL1        0.0369
      3 C          62.5864   89.9277   13.0066 C.ar    1  UNL1        0.0031
      4 C          63.3047   90.8605   12.0770 C.ar    1  UNL1       -0.0001
      5 C          64.4378   91.7014   12.5861 C.ar    1  UNL1       -0.0024
      6 C          65.1560   92.6341   11.6565 C.ar    1  UNL1       -0.0004
      7 C          64.7411   92.7260   10.2179 C.ar    1  UNL1       -0.0024
      8 C          63.6081   91.8851    9.7089 C.ar    1  UNL1       -0.0002
      9 C          62.8899   90.9524   10.6385 C.ar    1  UNL1        0.0030
     10 C          61.7568   90.1115   10.1295 C.ar    1  UNL1        0.0369
     11 O          59.9055   88.3379   10.5501 O.3     1  UNL1       -0.4706
     12 C          60.1751   87.2190    9.5881 C.3     1  UNL1        0.2320
     13 C          63.2837   84.1144   10.5618 C.ar    1  UNL1        0.0756
     14 C          62.4352   84.6946   11.6542 C.ar    1  UNL1        0.0062
     15 C          61.3990   85.7294   11.3297 C.ar    1  UNL1       -0.0005
     16 C          61.2113   86.1841    9.9127 C.ar    1  UNL1        0.0212
     17 C          62.0598   85.6040    8.8202 C.ar    1  UNL1       -0.0005
     18 C          63.0960   84.5691    9.1447 C.ar    1  UNL1        0.0062
     19 C          64.3200   83.0796   10.8864 C.2     1  UNL1        0.3413
     20 O          64.9665   82.2941    9.7840 O.2     1  UNL1       -0.2449
     21 C          64.0108   81.7660   13.1064 C.3     1  UNL1        0.2560
     22 O          64.7096   82.8301   12.3132 O.3     1  UNL1       -0.4413
     23 C          66.2891   93.4750   12.1655 C.3     1  UNL1        0.1240
     24 N          66.9764   93.1105   13.4480 N.ar    1  UNL1       -0.3045
     25 C          66.8232   93.8172   14.7622 C.ar    1  UNL1        0.0983
     26 C          67.6897   93.1188   15.7679 C.ar    1  UNL1        0.1193
     27 N          68.3784   91.9804   15.0752 N.ar    1  UNL1       -0.2223
     28 C          67.9375   91.9753   13.6415 C.ar    1  UNL1        0.1788
     29 C          66.7349   94.6804   11.3920 C.3     1  UNL1        0.0827
     30 C          66.3703   96.0549   11.8694 C.3     1  UNL1        0.0197
     31 N          67.5452   94.5113   10.1411 N.3     1  UNL1       -0.2696
     32 C          67.5382   95.5836    9.0922 C.3     1  UNL1        0.0897
     33 C          68.3626   93.2699    9.9390 C.3     1  UNL1        0.0897
@<TRIPOS>BOND
     1    21    22    1
     2    22    19    1
     3    19    20    2
     4    19    13    1
     5    13    14   ar
     6    14    15   ar
     7    15    16   ar
     8    16    12    1
     9    12    11    1
    10    11     1    1
    11     1     2   ar
    12     2     3   ar
    13     3     4   ar
    14     4     5   ar
    15     5     6   ar
    16     6    23    1
    17    23    29    1
    18    29    30    1
    19    29    31    1
    20    31    32    1
    21    31    33    1
    22    23    24    1
    23    24    25   ar
    24    25    26   ar
    25    26    27   ar
    26    27    28   ar
    27     6     7   ar
    28     7     8   ar
    29     8     9   ar
    30     9    10   ar
    31    16    17   ar
    32    17    18   ar
    33    18    13   ar
    34    10     1   ar
    35     9     4   ar
    36    28    24   ar
@<TRIPOS>MOLECULE
*****
 33 36 0 0 0
SMALL
GASTEIGER

@<TRIPOS>ATOM
      1 C          60.3399   87.5070    8.2356 C.ar    1  UNL1        0.1391
      2 C          59.8688   88.0156    9.5657 C.ar    1  UNL1        0.0369
      3 C          60.4184   87.4270   10.8312 C.ar    1  UNL1        0.0031
      4 C          61.4391   86.3297   10.7665 C.ar    1  UNL1       -0.0001
      5 C          61.9887   85.7411   12.0320 C.ar    1  UNL1       -0.0024
      6 C          63.0094   84.6439   11.9673 C.ar    1  UNL1       -0.0004
      7 C          63.4806   84.1353   10.6371 C.ar    1  UNL1       -0.0024
      8 C          62.9310   84.7239    9.3716 C.ar    1  UNL1       -0.0002
      9 C          61.9102   85.8212    9.4363 C.ar    1  UNL1        0.0030
     10 C          61.3607   86.4098    8.1709 C.ar    1  UNL1        0.0369
     11 O          59.7903   88.0957    6.9700 O.3     1  UNL1       -0.4706
     12 C          59.1095   89.4319    6.9983 C.3     1  UNL1        0.2320
     13 C          59.6826   92.3215    3.5965 C.ar    1  UNL1        0.0756
     14 C          58.3071   92.0598    4.1346 C.ar    1  UNL1        0.0062
     15 C          58.1161   91.0966    5.2685 C.ar    1  UNL1       -0.0005
     16 C          59.3005   90.3952    5.8643 C.ar    1  UNL1        0.0212
     17 C          60.6760   90.6569    5.3262 C.ar    1  UNL1       -0.0005
     18 C          60.8670   91.6200    4.1923 C.ar    1  UNL1        0.0062
     19 C          59.8736   93.2847    2.4626 C.2     1  UNL1        0.3413
     20 O          60.1148   94.7379    2.7455 O.2     1  UNL1       -0.2449
     21 C          61.0615   92.8199    0.1993 C.3     1  UNL1        0.2560
     22 O          59.8235   92.7948    1.0458 O.3     1  UNL1       -0.4413
     23 C          63.5590   84.0552   13.2328 C.3     1  UNL1        0.1240
     24 N          63.2022   82.6517   13.6239 N.ar    1  UNL1       -0.3045
     25 C          63.9501   81.4109   13.2354 C.ar    1  UNL1        0.0983
     26 C          63.2449   80.2350   13.8436 C.ar    1  UNL1        0.1193
     27 N          62.0611   80.7490   14.6080 N.ar    1  UNL1       -0.2223
     28 C          62.0347   82.2427   14.4722 C.ar    1  UNL1        0.1788
     29 C          64.4655   84.8700   14.1072 C.3     1  UNL1        0.0827
     30 C          65.9421   84.6064   14.1086 C.3     1  UNL1        0.0197
     31 N          63.8952   85.9484   14.9801 N.3     1  UNL1       -0.2696
     32 C          63.0382   85.5861   16.1566 C.3     1  UNL1        0.0897
     33 C          64.1820   87.3891   14.6764 C.3     1  UNL1        0.0897
@<TRIPOS>BOND
     1    21    22    1
     2    22    19    1
     3    19    20    2
     4    19    13    1
     5    13    14   ar
     6    14    15   ar
     7    15    16   ar
     8    16    12    1
     9    12    11    1
    10    11     1    1
    11     1     2   ar
    12     2     3   ar
    13     3     4   ar
    14     4     5   ar
    15     5     6   ar
    16     6    23    1
    17    23    29    1
    18    29    30    1
    19    29    31    1
    20    31    32    1
    21    31    33    1
    22    23    24    1
    23    24    25   ar
    24    25    26   ar
    25    26    27   ar
    26    27    28   ar
    27     6     7   ar
    28     7     8   ar
    29     8     9   ar
    30     9    10   ar
    31    16    17   ar
    32    17    18   ar
    33    18    13   ar
    34    10     1   ar
    35     9     4   ar
    36    28    24   ar
@<TRIPOS>MOLECULE
*****
 33 36 0 0 0
SMALL
GASTEIGER

@<TRIPOS>ATOM
      1 C          59.8659   89.1440    8.0360 C.ar    1  UNL1        0.1391
      2 C          59.4564   87.7419    7.6948 C.ar    1  UNL1        0.0369
      3 C          59.9986   86.5887    8.4860 C.ar    1  UNL1        0.0031
      4 C          60.9501   86.8375    9.6186 C.ar    1  UNL1       -0.0001
      5 C          61.4922   85.6842   10.4098 C.ar    1  UNL1       -0.0024
      6 C          62.4438   85.9331   11.5424 C.ar    1  UNL1       -0.0004
      7 C          62.8532   87.3352   11.8836 C.ar    1  UNL1       -0.0024
      8 C          62.3111   88.4885   11.0924 C.ar    1  UNL1       -0.0002
      9 C          61.3595   88.2396    9.9598 C.ar    1  UNL1        0.0030
     10 C          60.8174   89.3928    9.1686 C.ar    1  UNL1        0.0369
     11 O          59.3237   90.2973    7.2448 O.3     1  UNL1       -0.4706
     12 C          59.0794   90.1477    5.7724 C.3     1  UNL1        0.2320
     13 C          61.3402   92.7105    2.8447 C.ar    1  UNL1        0.0756
     14 C          62.0551   91.6357    3.6087 C.ar    1  UNL1        0.0062
     15 C          61.3015   90.7814    4.5846 C.ar    1  UNL1       -0.0005
     16 C          59.8331   91.0020    4.7965 C.ar    1  UNL1        0.0212
     17 C          59.1182   92.0768    4.0325 C.ar    1  UNL1       -0.0005
     18 C          59.8717   92.9311    3.0566 C.ar    1  UNL1        0.0062
     19 C          62.0938   93.5647    1.8688 C.2     1  UNL1        0.3413
     20 O          61.3718   94.2100    0.7232 O.2     1  UNL1       -0.2449
     21 C          64.5202   93.3051    0.9772 C.3     1  UNL1        0.2560
     22 O          63.5694   93.7738    2.0385 O.3     1  UNL1       -0.4413
     23 C          62.9859   84.7799   12.3336 C.3     1  UNL1        0.1240
     24 N          63.1192   84.8894   13.8237 N.ar    1  UNL1       -0.3045
     25 C          62.0972   84.4601   14.8342 C.ar    1  UNL1        0.0983
     26 C          62.6442   84.7528   16.1999 C.ar    1  UNL1        0.1193
     27 N          64.0044   85.3629   16.0334 N.ar    1  UNL1       -0.2223
     28 C          64.2979   85.4473   14.5648 C.ar    1  UNL1        0.1788
     29 C          63.3948   83.5170   11.6348 C.3     1  UNL1        0.0827
     30 C          63.8512   83.5642   10.2068 C.3     1  UNL1        0.0197
     31 N          63.3472   82.2072   12.3642 N.3     1  UNL1       -0.2696
     32 C          64.6147   81.5823   12.8671 C.3     1  UNL1        0.0897
     33 C          62.0320   81.5222   12.5907 C.3     1  UNL1        0.0897
@<TRIPOS>BOND
     1    21    22    1
     2    22    19    1
     3    19    20    2
     4    19    13    1
     5    13    14   ar
     6    14    15   ar
     7    15    16   ar
     8    16    12    1
     9    12    11    1
    10    11     1    1
    11     1     2   ar
    12     2     3   ar
    13     3     4   ar
    14     4     5   ar
    15     5     6   ar
    16     6    23    1
    17    23    29    1
    18    29    30    1
    19    29    31    1
    20    31    32    1
    21    31    33    1
    22    23    24    1
    23    24    25   ar
    24    25    26   ar
    25    26    27   ar
    26    27    28   ar
    27     6     7   ar
    28     7     8   ar
    29     8     9   ar
    30     9    10   ar
    31    16    17   ar
    32    17    18   ar
    33    18    13   ar
    34    10     1   ar
    35     9     4   ar
    36    28    24   ar
@<TRIPOS>MOLECULE
*****
 33 36 0 0 0
SMALL
GASTEIGER

@<TRIPOS>ATOM
      1 C          60.1330   88.9065    8.4776 C.ar    1  UNL1        0.1391
      2 C          59.7785   87.4919    8.1268 C.ar    1  UNL1        0.0369
      3 C          60.3514   86.3561    8.9216 C.ar    1  UNL1        0.0031
      4 C          61.2786   86.6349   10.0672 C.ar    1  UNL1       -0.0001
      5 C          61.8514   85.4990   10.8620 C.ar    1  UNL1       -0.0024
      6 C          62.7787   85.7778   12.0077 C.ar    1  UNL1       -0.0004
      7 C          63.1331   87.1926   12.3584 C.ar    1  UNL1       -0.0024
      8 C          62.5603   88.3284   11.5636 C.ar    1  UNL1       -0.0002
      9 C          61.6331   88.0496   10.4180 C.ar    1  UNL1        0.0030
     10 C          61.0602   89.1854    9.6232 C.ar    1  UNL1        0.0369
     11 O          59.5601   90.0424    7.6828 O.3     1  UNL1       -0.4706
     12 C          59.1569   89.8296    6.2538 C.3     1  UNL1        0.2320
     13 C          60.4575   92.7529    3.0896 C.ar    1  UNL1        0.0756
     14 C          59.0209   92.7014    3.5181 C.ar    1  UNL1        0.0062
     15 C          58.5874   91.7270    4.5728 C.ar    1  UNL1       -0.0005
     16 C          59.5904   90.8041    5.1990 C.ar    1  UNL1        0.0212
     17 C          61.0270   90.8556    4.7705 C.ar    1  UNL1       -0.0005
     18 C          61.4605   91.8300    3.7157 C.ar    1  UNL1        0.0062
     19 C          60.8910   93.7274    2.0348 C.2     1  UNL1        0.3413
     20 O          60.2639   95.0884    1.9678 O.2     1  UNL1       -0.2449
     21 C          63.3198   93.9488    1.1395 C.3     1  UNL1        0.2560
     22 O          61.9517   93.3410    1.0471 O.3     1  UNL1       -0.4413
     23 C          63.3515   84.6420   12.8025 C.3     1  UNL1        0.1240
     24 N          63.2651   83.2399   12.2765 N.ar    1  UNL1       -0.3045
     25 C          63.8274   82.7502   10.9750 C.ar    1  UNL1        0.0983
     26 C          63.5111   81.2890   10.8538 C.ar    1  UNL1        0.1193
     27 N          62.7533   80.8756   12.0805 N.ar    1  UNL1       -0.2223
     28 C          62.6013   82.0813   12.9598 C.ar    1  UNL1        0.1788
     29 C          64.0108   84.9083   14.1233 C.3     1  UNL1        0.0827
     30 C          65.5051   84.8517   14.2406 C.3     1  UNL1        0.0197
     31 N          63.1757   85.2312   15.3268 N.3     1  UNL1       -0.2696
     32 C          63.5081   86.4250   16.1720 C.3     1  UNL1        0.0897
     33 C          62.0081   84.3603   15.6850 C.3     1  UNL1        0.0897
@<TRIPOS>BOND
     1    21    22    1
     2    22    19    1
     3    19    20    2
     4    19    13    1
     5    13    14   ar
     6    14    15   ar
     7    15    16   ar
     8    16    12    1
     9    12    11    1
    10    11     1    1
    11     1     2   ar
    12     2     3   ar
    13     3     4   ar
    14     4     5   ar
    15     5     6   ar
    16     6    23    1
    17    23    29    1
    18    29    30    1
    19    29    31    1
    20    31    32    1
    21    31    33    1
    22    23    24    1
    23    24    25   ar
    24    25    26   ar
    25    26    27   ar
    26    27    28   ar
    27     6     7   ar
    28     7     8   ar
    29     8     9   ar
    30     9    10   ar
    31    16    17   ar
    32    17    18   ar
    33    18    13   ar
    34    10     1   ar
    35     9     4   ar
    36    28    24   ar
@<TRIPOS>MOLECULE
*****
 33 36 0 0 0
SMALL
GASTEIGER

@<TRIPOS>ATOM
      1 C          60.5668   88.3526    8.7676 C.ar    1  UNL1        0.1391
      2 C          60.6584   87.2822    9.8144 C.ar    1  UNL1        0.0369
      3 C          61.4635   87.5166   11.0582 C.ar    1  UNL1        0.0031
      4 C          62.1768   88.8213   11.2551 C.ar    1  UNL1       -0.0001
      5 C          62.9819   89.0556   12.4990 C.ar    1  UNL1       -0.0024
      6 C          63.6953   90.3603   12.6959 C.ar    1  UNL1       -0.0004
      7 C          63.6036   91.4307   11.6490 C.ar    1  UNL1       -0.0024
      8 C          62.7986   91.1964   10.4052 C.ar    1  UNL1       -0.0002
      9 C          62.0852   89.8917   10.2083 C.ar    1  UNL1        0.0030
     10 C          61.2802   89.6573    8.9645 C.ar    1  UNL1        0.0369
     11 O          59.7618   88.1182    7.5237 O.3     1  UNL1       -0.4706
     12 C          58.7136   89.1087    7.1111 C.3     1  UNL1        0.2320
     13 C          59.6016   92.1082    3.8762 C.ar    1  UNL1        0.0756
     14 C          60.7170   91.3157    4.4909 C.ar    1  UNL1        0.0062
     15 C          60.4210   90.3159    5.5691 C.ar    1  UNL1       -0.0005
     16 C          59.0097   90.1086    6.0327 C.ar    1  UNL1        0.0212
     17 C          57.8942   90.9011    5.4181 C.ar    1  UNL1       -0.0005
     18 C          58.1902   91.9009    4.3399 C.ar    1  UNL1        0.0062
     19 C          59.8976   93.1081    2.7979 C.2     1  UNL1        0.3413
     20 O          59.9637   92.6686    1.3653 O.2     1  UNL1       -0.2449
     21 C          60.2536   95.5758    2.0677 C.3     1  UNL1        0.2560
     22 O          60.1275   94.5474    3.1523 O.3     1  UNL1       -0.4413
     23 C          64.5003   90.5947   13.9397 C.3     1  UNL1        0.1240
     24 N          65.8395   91.2644   13.8511 N.ar    1  UNL1       -0.3045
     25 C          66.9108   91.2357   14.9007 C.ar    1  UNL1        0.0983
     26 C          68.0760   92.0340   14.3958 C.ar    1  UNL1        0.1193
     27 N          67.7250   92.5560   13.0341 N.ar    1  UNL1       -0.2223
     28 C          66.3428   92.0804   12.6975 C.ar    1  UNL1        0.1788
     29 C          63.9660   90.1593   15.2720 C.3     1  UNL1        0.0827
     30 C          63.5545   91.1848   16.2865 C.3     1  UNL1        0.0197
     31 N          63.8433   88.6985   15.5898 N.3     1  UNL1       -0.2696
     32 C          64.5162   87.6818   14.7162 C.3     1  UNL1        0.0897
     33 C          63.0476   88.2545   16.7814 C.3     1  UNL1        0.0897
@<TRIPOS>BOND
     1    21    22    1
     2    22    19    1
     3    19    20    2
     4    19    13    1
     5    13    14   ar
     6    14    15   ar
     7    15    16   ar
     8    16    12    1
     9    12    11    1
    10    11     1    1
    11     1     2   ar
    12     2     3   ar
    13     3     4   ar
    14     4     5   ar
    15     5     6   ar
    16     6    23    1
    17    23    29    1
    18    29    30    1
    19    29    31    1
    20    31    32    1
    21    31    33    1
    22    23    24    1
    23    24    25   ar
    24    25    26   ar
    25    26    27   ar
    26    27    28   ar
    27     6     7   ar
    28     7     8   ar
    29     8     9   ar
    30     9    10   ar
    31    16    17   ar
    32    17    18   ar
    33    18    13   ar
    34    10     1   ar
    35     9     4   ar
    36    28    24   ar
@<TRIPOS>MOLECULE
*****
 33 36 0 0 0
SMALL
GASTEIGER

@<TRIPOS>ATOM
      1 C          60.4184   87.4794    8.0702 C.ar    1  UNL1        0.1391
      2 C          60.2532   85.9919    8.1699 C.ar    1  UNL1        0.0369
      3 C          60.8553   85.2461    9.3237 C.ar    1  UNL1        0.0031
      4 C          61.6225   85.9878   10.3779 C.ar    1  UNL1       -0.0001
      5 C          62.2245   85.2420   11.5317 C.ar    1  UNL1       -0.0024
      6 C          62.9917   85.9837   12.5859 C.ar    1  UNL1       -0.0004
      7 C          63.1569   87.4713   12.4861 C.ar    1  UNL1       -0.0024
      8 C          62.5549   88.2171   11.3323 C.ar    1  UNL1       -0.0002
      9 C          61.7877   87.4753   10.2782 C.ar    1  UNL1        0.0030
     10 C          61.1856   88.2211    9.1244 C.ar    1  UNL1        0.0369
     11 O          59.8164   88.2253    6.9164 O.3     1  UNL1       -0.4706
     12 C          59.4711   89.6778    7.0604 C.3     1  UNL1        0.2320
     13 C          59.8335   92.4381    3.5250 C.ar    1  UNL1        0.0756
     14 C          58.4948   92.2048    4.1603 C.ar    1  UNL1        0.0062
     15 C          58.3740   91.2848    5.3388 C.ar    1  UNL1       -0.0005
     16 C          59.5919   90.5979    5.8819 C.ar    1  UNL1        0.0212
     17 C          60.9305   90.8311    5.2466 C.ar    1  UNL1       -0.0005
     18 C          61.0513   91.7512    4.0681 C.ar    1  UNL1        0.0062
     19 C          59.9542   93.3582    2.3464 C.2     1  UNL1        0.3413
     20 O          60.0216   92.7939    0.9582 O.2     1  UNL1       -0.2449
     21 C          60.8888   95.6912    1.6885 C.3     1  UNL1        0.2560
     22 O          60.0075   94.8425    2.5561 O.3     1  UNL1       -0.4413
     23 C          63.5937   85.2379   13.7397 C.3     1  UNL1        0.1240
     24 N          63.5246   83.7401   13.7826 N.ar    1  UNL1       -0.3045
     25 C          64.2940   82.7965   12.9065 C.ar    1  UNL1        0.0983
     26 C          63.9189   81.3961   13.2917 C.ar    1  UNL1        0.1193
     27 N          62.9177   81.4743   14.4059 N.ar    1  UNL1       -0.2223
     28 C          62.6740   82.9229   14.7093 C.ar    1  UNL1        0.1788
     29 C          64.2649   85.9899   14.8506 C.3     1  UNL1        0.0827
     30 C          65.7610   86.0891   14.8923 C.3     1  UNL1        0.0197
     31 N          63.4399   86.6427   15.9198 N.3     1  UNL1       -0.2696
     32 C          62.6349   85.8009   16.8649 C.3     1  UNL1        0.0897
     33 C          63.4199   88.1375   16.0439 C.3     1  UNL1        0.0897
@<TRIPOS>BOND
     1    21    22    1
     2    22    19    1
     3    19    20    2
     4    19    13    1
     5    13    14   ar
     6    14    15   ar
     7    15    16   ar
     8    16    12    1
     9    12    11    1
    10    11     1    1
    11     1     2   ar
    12     2     3   ar
    13     3     4   ar
    14     4     5   ar
    15     5     6   ar
    16     6    23    1
    17    23    29    1
    18    29    30    1
    19    29    31    1
    20    31    32    1
    21    31    33    1
    22    23    24    1
    23    24    25   ar
    24    25    26   ar
    25    26    27   ar
    26    27    28   ar
    27     6     7   ar
    28     7     8   ar
    29     8     9   ar
    30     9    10   ar
    31    16    17   ar
    32    17    18   ar
    33    18    13   ar
    34    10     1   ar
    35     9     4   ar
    36    28    24   ar
@<TRIPOS>MOLECULE
*****
 33 36 0 0 0
SMALL
GASTEIGER

@<TRIPOS>ATOM
      1 C          60.7763   89.0936   10.3258 C.ar    1  UNL1        0.1391
      2 C          60.6742   89.2141   11.8174 C.ar    1  UNL1        0.0369
      3 C          61.6748   90.0369   12.5735 C.ar    1  UNL1        0.0031
      4 C          62.7775   90.7391   11.8381 C.ar    1  UNL1       -0.0001
      5 C          63.7782   91.5619   12.5943 C.ar    1  UNL1       -0.0024
      6 C          64.8809   92.2641   11.8588 C.ar    1  UNL1       -0.0004
      7 C          64.9829   92.1435   10.3671 C.ar    1  UNL1       -0.0024
      8 C          63.9823   91.3208    9.6109 C.ar    1  UNL1       -0.0002
      9 C          62.8796   90.6186   10.3464 C.ar    1  UNL1        0.0030
     10 C          61.8790   89.7958    9.5903 C.ar    1  UNL1        0.0369
     11 O          59.7756   88.2708    9.5696 O.3     1  UNL1       -0.4706
     12 C          60.2040   86.9998    8.8980 C.3     1  UNL1        0.2320
     13 C          63.1805   84.2868   10.9054 C.ar    1  UNL1        0.0756
     14 C          63.1628   84.4050    9.4102 C.ar    1  UNL1        0.0062
     15 C          62.1706   85.3093    8.7410 C.ar    1  UNL1       -0.0005
     16 C          61.1962   86.0954    9.5671 C.ar    1  UNL1        0.0212
     17 C          61.2139   85.9772   11.0623 C.ar    1  UNL1       -0.0005
     18 C          62.2061   85.0729   11.7315 C.ar    1  UNL1        0.0062
     19 C          64.1727   83.3824   11.5745 C.2     1  UNL1        0.3413
     20 O          65.1580   82.6089   10.7493 O.2     1  UNL1       -0.2449
     21 C          65.0067   84.1873   13.8997 C.3     1  UNL1        0.2560
     22 O          64.1796   83.2516   13.0688 O.3     1  UNL1       -0.4413
     23 C          65.8815   93.0869   12.6149 C.3     1  UNL1        0.1240
     24 N          66.2276   94.4677   12.1422 N.ar    1  UNL1       -0.3045
     25 C          66.2882   95.7016   12.9929 C.ar    1  UNL1        0.0983
     26 C          66.6720   96.8536   12.1122 C.ar    1  UNL1        0.1193
     27 N          66.8486   96.3317   10.7171 N.ar    1  UNL1       -0.2223
     28 C          66.5740   94.8571   10.7356 C.ar    1  UNL1        0.1788
     29 C          66.5360   92.5288   13.8439 C.3     1  UNL1        0.0827
     30 C          65.7046   92.1727   15.0404 C.3     1  UNL1        0.0197
     31 N          68.0220   92.3269   13.8761 N.3     1  UNL1       -0.2696
     32 C          68.8120   92.7606   15.0752 C.3     1  UNL1        0.0897
     33 C          68.7181   91.6912   12.7093 C.3     1  UNL1        0.0897
@<TRIPOS>BOND
     1    21    22    1
     2    22    19    1
     3    19    20    2
     4    19    13    1
     5    13    14   ar
     6    14    15   ar
     7    15    16   ar
     8    16    12    1
     9    12    11    1
    10    11     1    1
    11     1     2   ar
    12     2     3   ar
    13     3     4   ar
    14     4     5   ar
    15     5     6   ar
    16     6    23    1
    17    23    29    1
    18    29    30    1
    19    29    31    1
    20    31    32    1
    21    31    33    1
    22    23    24    1
    23    24    25   ar
    24    25    26   ar
    25    26    27   ar
    26    27    28   ar
    27     6     7   ar
    28     7     8   ar
    29     8     9   ar
    30     9    10   ar
    31    16    17   ar
    32    17    18   ar
    33    18    13   ar
    34    10     1   ar
    35     9     4   ar
    36    28    24   ar
@<TRIPOS>MOLECULE
*****
 33 36 0 0 0
SMALL
GASTEIGER

@<TRIPOS>ATOM
      1 C          59.8307   88.6973    7.8584 C.ar    1  UNL1        0.1391
      2 C          59.9602   87.2717    8.3063 C.ar    1  UNL1        0.0369
      3 C          60.7679   86.9392    9.5257 C.ar    1  UNL1        0.0031
      4 C          61.4460   88.0323   10.2972 C.ar    1  UNL1       -0.0001
      5 C          62.2537   87.6998   11.5167 C.ar    1  UNL1       -0.0024
      6 C          62.9318   88.7929   12.2882 C.ar    1  UNL1       -0.0004
      7 C          62.8022   90.2186   11.8402 C.ar    1  UNL1       -0.0024
      8 C          61.9945   90.5511   10.6208 C.ar    1  UNL1       -0.0002
      9 C          61.3164   89.4580    9.8493 C.ar    1  UNL1        0.0030
     10 C          60.5088   89.7905    8.6299 C.ar    1  UNL1        0.0369
     11 O          59.0230   89.0299    6.6388 O.3     1  UNL1       -0.4706
     12 C          58.7590   90.4627    6.2819 C.3     1  UNL1        0.2320
     13 C          61.1003   92.4267    2.9788 C.ar    1  UNL1        0.0756
     14 C          61.7597   91.4111    3.8640 C.ar    1  UNL1        0.0062
     15 C          60.9793   90.7564    4.9650 C.ar    1  UNL1       -0.0005
     16 C          59.5395   91.1174    5.1808 C.ar    1  UNL1        0.0212
     17 C          58.8801   92.1330    4.2956 C.ar    1  UNL1       -0.0005
     18 C          59.6605   92.7877    3.1946 C.ar    1  UNL1        0.0062
     19 C          61.8808   93.0814    1.8777 C.2     1  UNL1        0.3413
     20 O          63.2651   93.5948    2.1425 O.2     1  UNL1       -0.2449
     21 C          60.5293   92.0753   -0.0998 C.3     1  UNL1        0.2560
     22 O          61.2770   93.2227    0.5119 O.3     1  UNL1       -0.4413
     23 C          63.7394   88.4604   13.5077 C.3     1  UNL1        0.1240
     24 N          64.0396   87.0291   13.8412 N.ar    1  UNL1       -0.3045
     25 C          64.9672   86.5506   14.9184 C.ar    1  UNL1        0.0983
     26 C          64.9658   85.0507   14.8990 C.ar    1  UNL1        0.1193
     27 N          64.0372   84.6022   13.8097 N.ar    1  UNL1       -0.2223
     28 C          63.4648   85.8249   13.1559 C.ar    1  UNL1        0.1788
     29 C          64.2470   89.5593   14.3937 C.3     1  UNL1        0.0827
     30 C          65.4025   90.4068   13.9505 C.3     1  UNL1        0.0197
     31 N          63.5990   89.8105   15.7230 N.3     1  UNL1       -0.2696
     32 C          62.9053   88.6921   16.4425 C.3     1  UNL1        0.0897
     33 C          63.6448   91.1803   16.3327 C.3     1  UNL1        0.0897
@<TRIPOS>BOND
     1    21    22    1
     2    22    19    1
     3    19    20    2
     4    19    13    1
     5    13    14   ar
     6    14    15   ar
     7    15    16   ar
     8    16    12    1
     9    12    11    1
    10    11     1    1
    11     1     2   ar
    12     2     3   ar
    13     3     4   ar
    14     4     5   ar
    15     5     6   ar
    16     6    23    1
    17    23    29    1
    18    29    30    1
    19    29    31    1
    20    31    32    1
    21    31    33    1
    22    23    24    1
    23    24    25   ar
    24    25    26   ar
    25    26    27   ar
    26    27    28   ar
    27     6     7   ar
    28     7     8   ar
    29     8     9   ar
    30     9    10   ar
    31    16    17   ar
    32    17    18   ar
    33    18    13   ar
    34    10     1   ar
    35     9     4   ar
    36    28    24   ar
