@<TRIPOS>MOLECULE
*****
 22 24 0 0 0
SMALL
GASTEIGER

@<TRIPOS>ATOM
      1 N          66.5218   93.0068   15.3792 N.pl3   1  UNL1       -0.3375
      2 C          65.6865   92.2733   14.3720 C.ar    1  UNL1        0.1567
      3 N          65.3767   92.7356   12.9791 N.ar    1  UNL1       -0.2245
      4 C          64.5131   91.6967   12.3272 C.ar    1  UNL1        0.0893
      5 C          63.9018   91.6137   10.9600 C.ar    1  UNL1        0.0210
      6 C          63.0664   90.4263   10.5829 C.ar    1  UNL1        0.0199
      7 C          62.8424   89.3219   11.5729 C.ar    1  UNL1        0.1066
      8 C          63.4538   89.4050   12.9402 C.ar    1  UNL1        0.0264
      9 C          64.2891   90.5924   13.3173 C.ar    1  UNL1        0.0510
     10 S          65.0143   90.9488   14.5810 S.2     1  UNL1       -0.0519
     11 H          66.9232   93.8752   15.1469 H       1  UNL1        0.1442
     12 H          66.6686   92.6198   16.2724 H       1  UNL1        0.1442
     13 S          62.0070   88.1345   11.1958 S.O2    1  UNL1        0.0129
     14 O          61.2314   88.9856   10.2346 O.2     1  UNL1       -0.1683
     15 O          62.7827   87.2834   12.1570 O.2     1  UNL1       -0.1683
     16 C          61.1717   86.9472   10.8186 C.3     1  UNL1        0.1822
     17 C          61.3729   86.2801    9.4902 C.ar    1  UNL1        0.0017
     18 C          62.6911   85.6434    9.1627 C.ar    1  UNL1       -0.0026
     19 C          62.8923   84.9763    7.8344 C.ar    1  UNL1       -0.0003
     20 C          61.7754   84.9459    6.8335 C.ar    1  UNL1       -0.0000
     21 C          60.4573   85.5825    7.1611 C.ar    1  UNL1       -0.0003
     22 C          60.2561   86.2496    8.4894 C.ar    1  UNL1       -0.0026
@<TRIPOS>BOND
     1     1     2    1
     2     2     3   ar
     3     3     4   ar
     4     4     5   ar
     5     5     6   ar
     6     6     7   ar
     7     7    13    1
     8    13    14    2
     9    13    15    2
    10    13    16    1
    11    16    17    1
    12    17    18   ar
    13    18    19   ar
    14    19    20   ar
    15    20    21   ar
    16    21    22   ar
    17     7     8   ar
    18     8     9   ar
    19     9    10   ar
    20    10     2   ar
    21     9     4   ar
    22    22    17   ar
    23     1    11    1
    24     1    12    1
@<TRIPOS>MOLECULE
*****
 22 24 0 0 0
SMALL
GASTEIGER

@<TRIPOS>ATOM
      1 N          68.0779   93.4457   15.0829 N.pl3   1  UNL1       -0.3375
      2 C          67.0291   92.9226   14.1468 C.ar    1  UNL1        0.1567
      3 N          66.8575   93.3123   12.7085 N.ar    1  UNL1       -0.2245
      4 C          65.6901   92.5484   12.1574 C.ar    1  UNL1        0.0893
      5 C          65.0567   92.5262   10.7979 C.ar    1  UNL1        0.0210
      6 C          63.8735   91.6423   10.5361 C.ar    1  UNL1        0.0199
      7 C          63.3236   90.7805   11.6338 C.ar    1  UNL1        0.1066
      8 C          63.9570   90.8026   12.9933 C.ar    1  UNL1        0.0264
      9 C          65.1402   91.6866   13.2551 C.ar    1  UNL1        0.0510
     10 S          65.9678   91.9179   14.4846 S.2     1  UNL1       -0.0519
     11 H          68.7347   94.1073   14.7661 H       1  UNL1        0.1442
     12 H          68.1096   93.1276   16.0140 H       1  UNL1        0.1442
     13 S          62.1404   89.8965   11.3719 S.O2    1  UNL1        0.0129
     14 O          62.2741   89.3105   12.7462 O.2     1  UNL1       -0.1683
     15 O          62.0067   90.4825    9.9976 O.2     1  UNL1       -0.1683
     16 C          60.9572   89.0125   11.1101 C.3     1  UNL1        0.1822
     17 C          61.0310   87.9555   10.0483 C.ar    1  UNL1        0.0017
     18 C          59.9039   87.7935    9.0718 C.ar    1  UNL1       -0.0026
     19 C          59.9777   86.7365    8.0100 C.ar    1  UNL1       -0.0003
     20 C          61.1786   85.8416    7.9248 C.ar    1  UNL1       -0.0000
     21 C          62.3055   86.0037    8.9013 C.ar    1  UNL1       -0.0003
     22 C          62.2317   87.0607    9.9631 C.ar    1  UNL1       -0.0026
@<TRIPOS>BOND
     1     1     2    1
     2     2     3   ar
     3     3     4   ar
     4     4     5   ar
     5     5     6   ar
     6     6     7   ar
     7     7    13    1
     8    13    14    2
     9    13    15    2
    10    13    16    1
    11    16    17    1
    12    17    18   ar
    13    18    19   ar
    14    19    20   ar
    15    20    21   ar
    16    21    22   ar
    17     7     8   ar
    18     8     9   ar
    19     9    10   ar
    20    10     2   ar
    21     9     4   ar
    22    22    17   ar
    23     1    11    1
    24     1    12    1
@<TRIPOS>MOLECULE
*****
 22 24 0 0 0
SMALL
GASTEIGER

@<TRIPOS>ATOM
      1 N          68.5306   93.3407   14.7901 N.pl3   1  UNL1       -0.3375
      2 C          67.3268   92.5698   14.3352 C.ar    1  UNL1        0.1567
      3 N          66.7171   91.3924   15.0366 N.ar    1  UNL1       -0.2245
      4 C          65.5349   90.9359   14.2340 C.ar    1  UNL1        0.0893
      5 C          64.5530   89.8207   14.4388 C.ar    1  UNL1        0.0210
      6 C          63.4501   89.6008   13.4463 C.ar    1  UNL1        0.0199
      7 C          63.3292   90.4962   12.2489 C.ar    1  UNL1        0.1066
      8 C          64.3111   91.6114   12.0440 C.ar    1  UNL1        0.0264
      9 C          65.4140   91.8313   13.0366 C.ar    1  UNL1        0.0510
     10 S          66.5215   92.8411   13.0992 S.2     1  UNL1       -0.0519
     11 H          68.9943   93.0847   15.6199 H       1  UNL1        0.1442
     12 H          68.8568   94.1025   14.2587 H       1  UNL1        0.1442
     13 S          62.2262   90.2762   11.2563 S.O2    1  UNL1        0.0129
     14 O          63.0434   90.9556   10.1977 O.2     1  UNL1       -0.1683
     15 O          61.4090   89.5969   12.3148 O.2     1  UNL1       -0.1683
     16 C          61.1233   90.0564   10.2637 C.3     1  UNL1        0.1822
     17 C          61.0188   88.7488    9.5361 C.ar    1  UNL1        0.0017
     18 C          62.0622   87.6908    9.7414 C.ar    1  UNL1       -0.0026
     19 C          61.9576   86.3832    9.0138 C.ar    1  UNL1       -0.0003
     20 C          60.8097   86.1336    8.0810 C.ar    1  UNL1       -0.0000
     21 C          59.7664   87.1916    7.8758 C.ar    1  UNL1       -0.0003
     22 C          59.8709   88.4992    8.6034 C.ar    1  UNL1       -0.0026
@<TRIPOS>BOND
     1     1     2    1
     2     2     3   ar
     3     3     4   ar
     4     4     5   ar
     5     5     6   ar
     6     6     7   ar
     7     7    13    1
     8    13    14    2
     9    13    15    2
    10    13    16    1
    11    16    17    1
    12    17    18   ar
    13    18    19   ar
    14    19    20   ar
    15    20    21   ar
    16    21    22   ar
    17     7     8   ar
    18     8     9   ar
    19     9    10   ar
    20    10     2   ar
    21     9     4   ar
    22    22    17   ar
    23     1    11    1
    24     1    12    1
@<TRIPOS>MOLECULE
*****
 22 24 0 0 0
SMALL
GASTEIGER

@<TRIPOS>ATOM
      1 N          66.7888   94.7657   11.1552 N.pl3   1  UNL1       -0.3375
      2 C          65.9078   93.5861   11.4423 C.ar    1  UNL1        0.1567
      3 N          65.7050   92.9424   12.7818 N.ar    1  UNL1       -0.2245
      4 C          64.7467   91.8016   12.6077 C.ar    1  UNL1        0.0893
      5 C          64.1785   90.8108   13.5799 C.ar    1  UNL1        0.0210
      6 C          63.2208   89.7586   13.1049 C.ar    1  UNL1        0.0199
      7 C          62.8314   89.6972   11.6576 C.ar    1  UNL1        0.1066
      8 C          63.3997   90.6880   10.6854 C.ar    1  UNL1        0.0264
      9 C          64.3573   91.7402   11.1604 C.ar    1  UNL1        0.0510
     10 S          65.0749   92.8431   10.4402 S.2     1  UNL1       -0.0519
     11 H          67.2993   95.1876   11.8836 H       1  UNL1        0.1442
     12 H          66.8566   95.1179   10.2383 H       1  UNL1        0.1442
     13 S          61.8737   88.6449   11.1826 S.O2    1  UNL1        0.0129
     14 O          61.2728   89.6262   10.2204 O.2     1  UNL1       -0.1683
     15 O          62.4746   87.6636   12.1448 O.2     1  UNL1       -0.1683
     16 C          60.9160   87.5927   10.7076 C.3     1  UNL1        0.1822
     17 C          61.2584   86.7505    9.5145 C.ar    1  UNL1        0.0017
     18 C          60.2346   86.5157    8.4435 C.ar    1  UNL1       -0.0026
     19 C          60.5770   85.6736    7.2504 C.ar    1  UNL1       -0.0003
     20 C          61.9431   85.0661    7.1283 C.ar    1  UNL1       -0.0000
     21 C          62.9668   85.3009    8.1992 C.ar    1  UNL1       -0.0003
     22 C          62.6244   86.1431    9.3923 C.ar    1  UNL1       -0.0026
@<TRIPOS>BOND
     1     1     2    1
     2     2     3   ar
     3     3     4   ar
     4     4     5   ar
     5     5     6   ar
     6     6     7   ar
     7     7    13    1
     8    13    14    2
     9    13    15    2
    10    13    16    1
    11    16    17    1
    12    17    18   ar
    13    18    19   ar
    14    19    20   ar
    15    20    21   ar
    16    21    22   ar
    17     7     8   ar
    18     8     9   ar
    19     9    10   ar
    20    10     2   ar
    21     9     4   ar
    22    22    17   ar
    23     1    11    1
    24     1    12    1
@<TRIPOS>MOLECULE
*****
 22 24 0 0 0
SMALL
GASTEIGER

@<TRIPOS>ATOM
      1 N          58.6207   88.9785    6.6547 N.pl3   1  UNL1       -0.3375
      2 C          59.5272   88.4990    7.7494 C.ar    1  UNL1        0.1567
      3 N          60.1795   89.3565    8.7930 N.ar    1  UNL1       -0.2245
      4 C          60.9960   88.4653    9.6813 C.ar    1  UNL1        0.0893
      5 C          61.8548   88.7542   10.8766 C.ar    1  UNL1        0.0210
      6 C          62.5659   87.6347   11.5773 C.ar    1  UNL1        0.0199
      7 C          62.4183   86.2264   11.0827 C.ar    1  UNL1        0.1066
      8 C          61.5594   85.9374    9.8874 C.ar    1  UNL1        0.0264
      9 C          60.8483   87.0569    9.1867 C.ar    1  UNL1        0.0510
     10 S          59.9405   87.0778    7.9927 S.2     1  UNL1       -0.0519
     11 H          58.4072   89.9364    6.5766 H       1  UNL1        0.1442
     12 H          58.2393   88.3354    6.0143 H       1  UNL1        0.1442
     13 S          63.1295   85.1069   11.7835 S.O2    1  UNL1        0.0129
     14 O          63.1919   84.3405   10.4956 O.2     1  UNL1       -0.1683
     15 O          63.0670   85.8733   13.0714 O.2     1  UNL1       -0.1683
     16 C          63.8406   83.9874   12.4842 C.3     1  UNL1        0.1822
     17 C          63.0936   82.7412   12.8569 C.ar    1  UNL1        0.0017
     18 C          62.0822   82.7759   13.9642 C.ar    1  UNL1       -0.0026
     19 C          61.3352   81.5297   14.3369 C.ar    1  UNL1       -0.0003
     20 C          61.5996   80.2488   13.6024 C.ar    1  UNL1       -0.0000
     21 C          62.6110   80.2141   12.4952 C.ar    1  UNL1       -0.0003
     22 C          63.3580   81.4603   12.1225 C.ar    1  UNL1       -0.0026
@<TRIPOS>BOND
     1     1     2    1
     2     2     3   ar
     3     3     4   ar
     4     4     5   ar
     5     5     6   ar
     6     6     7   ar
     7     7    13    1
     8    13    14    2
     9    13    15    2
    10    13    16    1
    11    16    17    1
    12    17    18   ar
    13    18    19   ar
    14    19    20   ar
    15    20    21   ar
    16    21    22   ar
    17     7     8   ar
    18     8     9   ar
    19     9    10   ar
    20    10     2   ar
    21     9     4   ar
    22    22    17   ar
    23     1    11    1
    24     1    12    1
@<TRIPOS>MOLECULE
*****
 22 24 0 0 0
SMALL
GASTEIGER

@<TRIPOS>ATOM
      1 N          66.6772   93.9480   13.7838 N.pl3   1  UNL1       -0.3375
      2 C          65.7878   92.9637   13.0838 C.ar    1  UNL1        0.1567
      3 N          65.1790   93.1373   11.7239 N.ar    1  UNL1       -0.2245
      4 C          64.3660   91.9138   11.4203 C.ar    1  UNL1        0.0893
      5 C          63.5427   91.5262   10.2280 C.ar    1  UNL1        0.0210
      6 C          62.8256   90.2089   10.2079 C.ar    1  UNL1        0.0199
      7 C          62.9319   89.2792   11.3802 C.ar    1  UNL1        0.1066
      8 C          63.7552   89.6667   12.5726 C.ar    1  UNL1        0.0264
      9 C          64.4723   90.9840   12.5926 C.ar    1  UNL1        0.0510
     10 S          65.3510   91.6329   13.6207 S.2     1  UNL1       -0.0519
     11 H          66.9086   94.7995   13.3472 H       1  UNL1        0.1442
     12 H          67.0295   93.7426   14.6799 H       1  UNL1        0.1442
     13 S          62.2148   87.9618   11.3600 S.O2    1  UNL1        0.0129
     14 O          61.3215   88.4648   10.2651 O.2     1  UNL1       -0.1683
     15 O          63.1081   87.4587   12.4550 O.2     1  UNL1       -0.1683
     16 C          61.4976   86.6445   11.3399 C.3     1  UNL1        0.1822
     17 C          62.2558   85.3821   11.0543 C.ar    1  UNL1        0.0017
     18 C          62.4216   84.3477   12.1278 C.ar    1  UNL1       -0.0026
     19 C          63.1798   83.0853   11.8422 C.ar    1  UNL1       -0.0003
     20 C          63.7721   82.8573   10.4831 C.ar    1  UNL1       -0.0000
     21 C          63.6063   83.8918    9.4096 C.ar    1  UNL1       -0.0003
     22 C          62.8481   85.1541    9.6952 C.ar    1  UNL1       -0.0026
@<TRIPOS>BOND
     1     1     2    1
     2     2     3   ar
     3     3     4   ar
     4     4     5   ar
     5     5     6   ar
     6     6     7   ar
     7     7    13    1
     8    13    14    2
     9    13    15    2
    10    13    16    1
    11    16    17    1
    12    17    18   ar
    13    18    19   ar
    14    19    20   ar
    15    20    21   ar
    16    21    22   ar
    17     7     8   ar
    18     8     9   ar
    19     9    10   ar
    20    10     2   ar
    21     9     4   ar
    22    22    17   ar
    23     1    11    1
    24     1    12    1
@<TRIPOS>MOLECULE
*****
 22 24 0 0 0
SMALL
GASTEIGER

@<TRIPOS>ATOM
      1 N          63.7532   82.0278   14.5797 N.pl3   1  UNL1       -0.3375
      2 C          63.6669   83.4737   14.9693 C.ar    1  UNL1        0.1567
      3 N          63.0618   84.0121   16.2318 N.ar    1  UNL1       -0.2245
      4 C          63.1915   85.5063   16.2075 C.ar    1  UNL1        0.0893
      5 C          62.7741   86.5660   17.1837 C.ar    1  UNL1        0.0210
      6 C          63.0421   88.0107   16.8823 C.ar    1  UNL1        0.0199
      7 C          63.7273   88.3958   15.6048 C.ar    1  UNL1        0.1066
      8 C          64.1447   87.3361   14.6286 C.ar    1  UNL1        0.0264
      9 C          63.8768   85.8914   14.9300 C.ar    1  UNL1        0.0510
     10 S          64.1706   84.6352   14.1647 S.2     1  UNL1       -0.0519
     11 H          63.3920   81.3344   15.1780 H       1  UNL1        0.1442
     12 H          64.1710   81.7722   13.7257 H       1  UNL1        0.1442
     13 S          63.9953   89.8406   15.3034 S.O2    1  UNL1        0.0129
     14 O          63.4369   90.2233   16.6419 O.2     1  UNL1       -0.1683
     15 O          64.5537   89.4580   13.9649 O.2     1  UNL1       -0.1683
     16 C          64.2631   91.2854   15.0021 C.3     1  UNL1        0.1822
     17 C          65.6700   91.8057   15.0139 C.ar    1  UNL1        0.0017
     18 C          66.2018   92.5023   16.2313 C.ar    1  UNL1       -0.0026
     19 C          67.6086   93.0226   16.2431 C.ar    1  UNL1       -0.0003
     20 C          68.4836   92.8462   15.0375 C.ar    1  UNL1       -0.0000
     21 C          67.9518   92.1497   13.8202 C.ar    1  UNL1       -0.0003
     22 C          66.5450   91.6294   13.8084 C.ar    1  UNL1       -0.0026
@<TRIPOS>BOND
     1     1     2    1
     2     2     3   ar
     3     3     4   ar
     4     4     5   ar
     5     5     6   ar
     6     6     7   ar
     7     7    13    1
     8    13    14    2
     9    13    15    2
    10    13    16    1
    11    16    17    1
    12    17    18   ar
    13    18    19   ar
    14    19    20   ar
    15    20    21   ar
    16    21    22   ar
    17     7     8   ar
    18     8     9   ar
    19     9    10   ar
    20    10     2   ar
    21     9     4   ar
    22    22    17   ar
    23     1    11    1
    24     1    12    1
@<TRIPOS>MOLECULE
*****
 22 24 0 0 0
SMALL
GASTEIGER

@<TRIPOS>ATOM
      1 N          62.5405   78.2070   10.4101 N.pl3   1  UNL1       -0.3375
      2 C          62.7882   79.5618   11.0044 C.ar    1  UNL1        0.1567
      3 N          63.1389   80.8069   10.2451 N.ar    1  UNL1       -0.2245
      4 C          63.2962   81.9240   11.2338 C.ar    1  UNL1        0.0893
      5 C          63.6375   83.3746   11.0633 C.ar    1  UNL1        0.0210
      6 C          63.7253   84.2705   12.2631 C.ar    1  UNL1        0.0199
      7 C          63.4717   83.7157   13.6335 C.ar    1  UNL1        0.1066
      8 C          63.1304   82.2651   13.8040 C.ar    1  UNL1        0.0264
      9 C          63.0427   81.3692   12.6042 C.ar    1  UNL1        0.0510
     10 S          62.7287   79.9093   12.4624 S.2     1  UNL1       -0.0519
     11 H          62.6033   78.0777    9.4362 H       1  UNL1        0.1442
     12 H          62.3151   77.4470   10.9940 H       1  UNL1        0.1442
     13 S          63.5595   84.6116   14.8334 S.O2    1  UNL1        0.0129
     14 O          65.0436   84.3999   14.8829 O.2     1  UNL1       -0.1683
     15 O          62.0754   84.8234   14.7839 O.2     1  UNL1       -0.1683
     16 C          63.6473   85.5075   16.0332 C.3     1  UNL1        0.1822
     17 C          63.6833   86.9966   15.8563 C.ar    1  UNL1        0.0017
     18 C          64.3313   87.5921   14.6416 C.ar    1  UNL1       -0.0026
     19 C          64.3673   89.0812   14.4647 C.ar    1  UNL1       -0.0003
     20 C          63.7553   89.9748   15.5026 C.ar    1  UNL1       -0.0000
     21 C          63.1074   89.3793   16.7173 C.ar    1  UNL1       -0.0003
     22 C          63.0714   87.8902   16.8942 C.ar    1  UNL1       -0.0026
@<TRIPOS>BOND
     1     1     2    1
     2     2     3   ar
     3     3     4   ar
     4     4     5   ar
     5     5     6   ar
     6     6     7   ar
     7     7    13    1
     8    13    14    2
     9    13    15    2
    10    13    16    1
    11    16    17    1
    12    17    18   ar
    13    18    19   ar
    14    19    20   ar
    15    20    21   ar
    16    21    22   ar
    17     7     8   ar
    18     8     9   ar
    19     9    10   ar
    20    10     2   ar
    21     9     4   ar
    22    22    17   ar
    23     1    11    1
    24     1    12    1
@<TRIPOS>MOLECULE
*****
 22 24 0 0 0
SMALL
GASTEIGER

@<TRIPOS>ATOM
      1 N          63.8655   81.6452   14.0821 N.pl3   1  UNL1       -0.3375
      2 C          63.7703   83.0709   14.5388 C.ar    1  UNL1        0.1567
      3 N          63.2967   83.5361   15.8839 N.ar    1  UNL1       -0.2245
      4 C          63.3657   85.0343   15.9070 C.ar    1  UNL1        0.0893
      5 C          63.0252   86.0385   16.9679 C.ar    1  UNL1        0.0210
      6 C          63.2009   87.5035   16.6980 C.ar    1  UNL1        0.0199
      7 C          63.7172   87.9642   15.3672 C.ar    1  UNL1        0.1066
      8 C          64.0578   86.9601   14.3063 C.ar    1  UNL1        0.0264
      9 C          63.8820   85.4951   14.5762 C.ar    1  UNL1        0.0510
     10 S          64.1321   84.2816   13.7306 S.2     1  UNL1       -0.0519
     11 H          63.6033   80.9155   14.6887 H       1  UNL1        0.1442
     12 H          64.1902   81.4393   13.1758 H       1  UNL1        0.1442
     13 S          63.8929   89.4293   15.0973 S.O2    1  UNL1        0.0129
     14 O          62.5040   89.6886   15.6008 O.2     1  UNL1       -0.1683
     15 O          65.2819   89.1700   14.5938 O.2     1  UNL1       -0.1683
     16 C          64.0686   90.8943   14.8274 C.3     1  UNL1        0.1822
     17 C          64.3814   91.3690   13.4393 C.ar    1  UNL1        0.0017
     18 C          65.5665   92.2568   13.1995 C.ar    1  UNL1       -0.0026
     19 C          65.8793   92.7315   11.8114 C.ar    1  UNL1       -0.0003
     20 C          65.0069   92.3185   10.6631 C.ar    1  UNL1       -0.0000
     21 C          63.8219   91.4308   10.9030 C.ar    1  UNL1       -0.0003
     22 C          63.5091   90.9561   12.2911 C.ar    1  UNL1       -0.0026
@<TRIPOS>BOND
     1     1     2    1
     2     2     3   ar
     3     3     4   ar
     4     4     5   ar
     5     5     6   ar
     6     6     7   ar
     7     7    13    1
     8    13    14    2
     9    13    15    2
    10    13    16    1
    11    16    17    1
    12    17    18   ar
    13    18    19   ar
    14    19    20   ar
    15    20    21   ar
    16    21    22   ar
    17     7     8   ar
    18     8     9   ar
    19     9    10   ar
    20    10     2   ar
    21     9     4   ar
    22    22    17   ar
    23     1    11    1
    24     1    12    1
