@<TRIPOS>MOLECULE
*****
 36 39 0 0 0
SMALL
GASTEIGER

@<TRIPOS>ATOM
      1 N          62.9510   90.9288   11.7009 N.am    1  UNL1       -0.2438
      2 C          63.3855   91.6498   10.4594 C.3     1  UNL1        0.1009
      3 C          64.5633   92.5777   10.5044 C.3     1  UNL1        0.0662
      4 C          65.3064   92.7845   11.7908 C.3     1  UNL1        0.1600
      5 O          64.8718   92.0635   13.0324 O.3     1  UNL1       -0.4374
      6 C          63.6941   91.1356   12.9874 C.2     1  UNL1        0.4051
      7 O          63.2595   90.4146   14.2288 O.2     1  UNL1       -0.2262
      8 C          66.0941   93.6862   10.8871 C.ar    1  UNL1        0.0140
      9 C          66.0706   95.1704   11.1027 C.ar    1  UNL1        0.0014
     10 C          66.8584   96.0720   10.1989 C.ar    1  UNL1        0.0294
     11 C          67.6694   95.4893    9.0798 C.ar    1  UNL1        0.1401
     12 F          68.4572   96.3910    8.1761 F       1  UNL1       -0.2042
     13 C          67.6929   94.0051    8.8642 C.ar    1  UNL1        0.0294
     14 C          66.9052   93.1035    9.7680 C.ar    1  UNL1        0.0014
     15 C          60.3808   90.5576   11.6204 C.3     1  UNL1        0.0265
     16 C          61.7732   90.0009   11.6559 C.3     1  UNL1        0.1011
     17 C          61.9880   88.5164   11.6464 C.ar    1  UNL1       -0.0042
     18 C          61.0890   87.6337   10.8324 C.ar    1  UNL1       -0.0026
     19 C          61.3038   86.1492   10.8230 C.ar    1  UNL1        0.0013
     20 C          62.4175   85.5474   11.6276 C.ar    1  UNL1        0.0193
     21 C          63.3165   86.4301   12.4416 C.ar    1  UNL1        0.0013
     22 C          63.1017   87.9146   12.4510 C.ar    1  UNL1       -0.0026
     23 C          62.6323   84.0628   11.6181 C.ar    1  UNL1        0.1011
     24 C          63.3673   83.4186   10.4803 C.ar    1  UNL1        0.0258
     25 C          63.5820   81.9340   10.4709 C.ar    1  UNL1        0.0638
     26 C          63.0617   81.0938   11.5992 C.ar    1  UNL1        0.2765
     27 O          63.2764   79.6093   11.5898 O.2     1  UNL1       -0.2655
     28 N          62.3267   81.7381   12.7371 N.ar    1  UNL1       -0.2146
     29 C          61.8064   80.8978   13.8655 C.3     1  UNL1        0.1571
     30 N          62.1120   83.2226   12.7465 N.ar    1  UNL1       -0.1668
     31 C          66.3231   93.3045   12.7635 C.3     1  UNL1        0.0714
     32 C          66.9893   92.3661   13.7254 C.3     1  UNL1        0.0922
     33 C          67.7218   91.7194   12.5873 C.3     1  UNL1        0.0294
     34 C          66.2569   93.0128   14.8635 C.3     1  UNL1        0.0294
     35 O          67.6556   91.4276   14.6874 O.3     1  UNL1       -0.3866
     36 H          68.2457   90.8311   14.2008 H       1  UNL1        0.2102
@<TRIPOS>BOND
     1    16    15    1
     2    16    17    1
     3    17    18   ar
     4    18    19   ar
     5    19    20   ar
     6    20    23    1
     7    23    24   ar
     8    24    25   ar
     9    25    26   ar
    10    26    27    2
    11    26    28   ar
    12    28    29    1
    13    28    30   ar
    14    20    21   ar
    15    21    22   ar
    16    16     1    1
    17     1     2    1
    18     2     3    1
    19     3     4    1
    20     4    31    1
    21    31    32    1
    22    32    33    1
    23    32    34    1
    24    32    35    1
    25     4     8    1
    26     8     9   ar
    27     9    10   ar
    28    10    11   ar
    29    11    12    1
    30    11    13   ar
    31    13    14   ar
    32     4     5    1
    33     5     6    1
    34     6     7    2
    35    22    17   ar
    36     6     1   am
    37    30    23   ar
    38    14     8   ar
    39    35    36    1
@<TRIPOS>MOLECULE
*****
 36 39 0 0 0
SMALL
GASTEIGER

@<TRIPOS>ATOM
      1 N          63.4061   90.5523   11.9057 N.am    1  UNL1       -0.2438
      2 C          64.1206   90.3539   13.2095 C.3     1  UNL1        0.1009
      3 C          65.3181   91.1930   13.5438 C.3     1  UNL1        0.0662
      4 C          65.8012   92.2306   12.5743 C.3     1  UNL1        0.1600
      5 O          65.0867   92.4291   11.2704 O.3     1  UNL1       -0.4374
      6 C          63.8891   91.5899   10.9360 C.2     1  UNL1        0.4051
      7 O          63.1747   91.7884    9.6322 O.2     1  UNL1       -0.2262
      8 C          66.8044   92.4147   13.6742 C.ar    1  UNL1        0.0140
      9 C          66.3906   93.0507   14.9680 C.ar    1  UNL1        0.0014
     10 C          67.3938   93.2348   16.0679 C.ar    1  UNL1        0.0294
     11 C          68.8109   92.7829   15.8737 C.ar    1  UNL1        0.1401
     12 F          69.8142   92.9670   16.9736 F       1  UNL1       -0.2042
     13 C          69.2247   92.1468   14.5798 C.ar    1  UNL1        0.0294
     14 C          68.2215   91.9627   13.4800 C.ar    1  UNL1        0.0014
     15 C          60.9089   90.3703   11.2121 C.3     1  UNL1        0.0265
     16 C          62.2086   89.7132   11.5713 C.3     1  UNL1        0.1011
     17 C          62.3107   88.2168   11.5963 C.ar    1  UNL1       -0.0042
     18 C          63.1832   87.5415   12.6124 C.ar    1  UNL1       -0.0026
     19 C          63.2853   86.0452   12.6373 C.ar    1  UNL1        0.0013
     20 C          62.5149   85.2243   11.6461 C.ar    1  UNL1        0.0193
     21 C          61.6423   85.8996   10.6300 C.ar    1  UNL1        0.0013
     22 C          61.5402   87.3959   10.6051 C.ar    1  UNL1       -0.0026
     23 C          62.6170   83.7279   11.6710 C.ar    1  UNL1        0.1011
     24 C          63.2415   82.9995   10.5180 C.ar    1  UNL1        0.0258
     25 C          63.3437   81.5031   10.5430 C.ar    1  UNL1        0.0638
     26 C          62.8213   80.7352   11.7209 C.ar    1  UNL1        0.2765
     27 O          62.9234   79.2390   11.7459 O.2     1  UNL1       -0.2655
     28 N          62.1967   81.4638   12.8739 N.ar    1  UNL1       -0.2146
     29 C          61.6743   80.6959   14.0518 C.3     1  UNL1        0.1571
     30 N          62.0946   82.9600   12.8489 N.ar    1  UNL1       -0.1668
     31 C          66.6327   93.3321   11.9867 C.3     1  UNL1        0.0714
     32 C          66.5546   93.6291   10.5185 C.3     1  UNL1        0.0922
     33 C          67.3674   92.4025   10.2271 C.3     1  UNL1        0.0294
     34 C          65.7419   94.8557   10.8098 C.3     1  UNL1        0.0294
     35 O          66.4767   93.9261    9.0503 O.3     1  UNL1       -0.3866
     36 H          66.9554   93.2422    8.5562 H       1  UNL1        0.2102
@<TRIPOS>BOND
     1    16    15    1
     2    16    17    1
     3    17    18   ar
     4    18    19   ar
     5    19    20   ar
     6    20    23    1
     7    23    24   ar
     8    24    25   ar
     9    25    26   ar
    10    26    27    2
    11    26    28   ar
    12    28    29    1
    13    28    30   ar
    14    20    21   ar
    15    21    22   ar
    16    16     1    1
    17     1     2    1
    18     2     3    1
    19     3     4    1
    20     4    31    1
    21    31    32    1
    22    32    33    1
    23    32    34    1
    24    32    35    1
    25     4     8    1
    26     8     9   ar
    27     9    10   ar
    28    10    11   ar
    29    11    12    1
    30    11    13   ar
    31    13    14   ar
    32     4     5    1
    33     5     6    1
    34     6     7    2
    35    22    17   ar
    36     6     1   am
    37    30    23   ar
    38    14     8   ar
    39    35    36    1
@<TRIPOS>MOLECULE
*****
 36 39 0 0 0
SMALL
GASTEIGER

@<TRIPOS>ATOM
      1 N          62.1335   87.2654   11.9369 N.am    1  UNL1       -0.2438
      2 C          61.7065   86.0656   11.1444 C.3     1  UNL1        0.1009
      3 C          62.2375   84.7073   11.4950 C.3     1  UNL1        0.0662
      4 C          63.1955   84.5487   12.6383 C.3     1  UNL1        0.1600
      5 O          63.6226   85.7485   13.4309 O.3     1  UNL1       -0.4374
      6 C          63.0915   87.1069   13.0802 C.2     1  UNL1        0.4051
      7 O          63.5185   88.3066   13.8728 O.2     1  UNL1       -0.2262
      8 C          63.0883   83.1218   12.1885 C.ar    1  UNL1        0.0140
      9 C          63.5770   82.7259   10.8267 C.ar    1  UNL1        0.0014
     10 C          63.4698   81.2989   10.3769 C.ar    1  UNL1        0.0294
     11 C          62.8738   80.2679   11.2889 C.ar    1  UNL1        0.1401
     12 F          62.7666   78.8409   10.8391 F       1  UNL1       -0.2042
     13 C          62.3851   80.6637   12.6507 C.ar    1  UNL1        0.0294
     14 C          62.4923   82.0907   13.1005 C.ar    1  UNL1        0.0014
     15 C          60.1223   88.8511   11.5002 C.3     1  UNL1        0.0265
     16 C          61.6025   88.6237   11.5863 C.3     1  UNL1        0.1011
     17 C          62.5517   89.7547   11.3217 C.ar    1  UNL1       -0.0042
     18 C          63.3768   90.3187   12.4402 C.ar    1  UNL1       -0.0026
     19 C          64.3259   91.4496   12.1756 C.ar    1  UNL1        0.0013
     20 C          64.4500   92.0166   10.7925 C.ar    1  UNL1        0.0193
     21 C          63.6249   91.4527    9.6739 C.ar    1  UNL1        0.0013
     22 C          62.6758   90.3217    9.9385 C.ar    1  UNL1       -0.0026
     23 C          65.3992   93.1476   10.5279 C.ar    1  UNL1        0.1011
     24 C          66.4879   92.9901    9.5082 C.ar    1  UNL1        0.0258
     25 C          67.4371   94.1211    9.2436 C.ar    1  UNL1        0.0638
     26 C          67.2976   95.4095    9.9988 C.ar    1  UNL1        0.2765
     27 O          68.2467   96.5405    9.7343 O.2     1  UNL1       -0.2655
     28 N          66.2088   95.5670   11.0186 N.ar    1  UNL1       -0.2146
     29 C          66.0692   96.8555   11.7737 C.3     1  UNL1        0.1571
     30 N          65.2596   94.4361   11.2831 N.ar    1  UNL1       -0.1668
     31 C          64.1163   83.8946   13.6253 C.3     1  UNL1        0.0714
     32 C          64.3725   84.5409   14.9544 C.3     1  UNL1        0.0922
     33 C          65.7534   84.9173   14.5052 C.3     1  UNL1        0.0294
     34 C          62.9918   84.1645   15.4036 C.3     1  UNL1        0.0294
     35 O          64.6288   85.1873   16.2835 O.3     1  UNL1       -0.3866
     36 H          65.5259   85.5561   16.2961 H       1  UNL1        0.2102
@<TRIPOS>BOND
     1    16    15    1
     2    16    17    1
     3    17    18   ar
     4    18    19   ar
     5    19    20   ar
     6    20    23    1
     7    23    24   ar
     8    24    25   ar
     9    25    26   ar
    10    26    27    2
    11    26    28   ar
    12    28    29    1
    13    28    30   ar
    14    20    21   ar
    15    21    22   ar
    16    16     1    1
    17     1     2    1
    18     2     3    1
    19     3     4    1
    20     4    31    1
    21    31    32    1
    22    32    33    1
    23    32    34    1
    24    32    35    1
    25     4     8    1
    26     8     9   ar
    27     9    10   ar
    28    10    11   ar
    29    11    12    1
    30    11    13   ar
    31    13    14   ar
    32     4     5    1
    33     5     6    1
    34     6     7    2
    35    22    17   ar
    36     6     1   am
    37    30    23   ar
    38    14     8   ar
    39    35    36    1
@<TRIPOS>MOLECULE
*****
 36 39 0 0 0
SMALL
GASTEIGER

@<TRIPOS>ATOM
      1 N          63.6702   88.0351   13.7724 N.am    1  UNL1       -0.2438
      2 C          64.1014   86.8135   14.5284 C.3     1  UNL1        0.1009
      3 C          63.7596   85.4492   14.0069 C.3     1  UNL1        0.0662
      4 C          62.9867   85.3066   12.7293 C.3     1  UNL1        0.1600
      5 O          62.5555   86.5282   11.9732 O.3     1  UNL1       -0.4374
      6 C          62.8973   87.8925   12.4947 C.2     1  UNL1        0.4051
      7 O          62.4661   89.1141   11.7387 O.2     1  UNL1       -0.2262
      8 C          63.1718   83.8610   13.0845 C.ar    1  UNL1        0.0140
      9 C          64.4557   83.1637   12.7450 C.ar    1  UNL1        0.0014
     10 C          64.6408   81.7181   13.1002 C.ar    1  UNL1        0.0294
     11 C          63.5420   80.9700   13.7949 C.ar    1  UNL1        0.1401
     12 F          63.7270   79.5244   14.1502 F       1  UNL1       -0.2042
     13 C          62.2580   81.6673   14.1345 C.ar    1  UNL1        0.0294
     14 C          62.0729   83.1128   13.7793 C.ar    1  UNL1        0.0014
     15 C          63.8133   89.7186   15.7460 C.3     1  UNL1        0.0265
     16 C          64.0119   89.3994   14.2939 C.3     1  UNL1        0.1011
     17 C          64.5523   90.4444   13.3633 C.ar    1  UNL1       -0.0042
     18 C          65.8247   91.1635   13.7006 C.ar    1  UNL1       -0.0026
     19 C          66.3649   92.2084   12.7700 C.ar    1  UNL1        0.0013
     20 C          65.6328   92.5343   11.5020 C.ar    1  UNL1        0.0193
     21 C          64.3604   91.8153   11.1647 C.ar    1  UNL1        0.0013
     22 C          63.8201   90.7703   12.0953 C.ar    1  UNL1       -0.0026
     23 C          66.1731   93.5794   10.5714 C.ar    1  UNL1        0.1011
     24 C          67.5990   93.5089   10.1112 C.ar    1  UNL1        0.0258
     25 C          68.1393   94.5539    9.1806 C.ar    1  UNL1        0.0638
     26 C          67.2537   95.6694    8.7101 C.ar    1  UNL1        0.2765
     27 O          67.7940   96.7144    7.7795 O.2     1  UNL1       -0.2655
     28 N          65.8277   95.7399    9.1703 N.ar    1  UNL1       -0.2146
     29 C          64.9421   96.8553    8.6999 C.3     1  UNL1        0.1571
     30 N          65.2875   94.6949   10.1009 N.ar    1  UNL1       -0.1668
     31 C          62.2781   84.6619   11.5751 C.3     1  UNL1        0.0714
     32 C          62.3784   85.2616   10.2039 C.3     1  UNL1        0.0922
     33 C          61.1384   86.0645   10.4642 C.3     1  UNL1        0.0294
     34 C          63.6184   84.4587    9.9435 C.3     1  UNL1        0.0294
     35 O          62.4787   85.8613    8.8327 O.3     1  UNL1       -0.3866
     36 H          61.7443   86.4801    8.6959 H       1  UNL1        0.2102
@<TRIPOS>BOND
     1    16    15    1
     2    16    17    1
     3    17    18   ar
     4    18    19   ar
     5    19    20   ar
     6    20    23    1
     7    23    24   ar
     8    24    25   ar
     9    25    26   ar
    10    26    27    2
    11    26    28   ar
    12    28    29    1
    13    28    30   ar
    14    20    21   ar
    15    21    22   ar
    16    16     1    1
    17     1     2    1
    18     2     3    1
    19     3     4    1
    20     4    31    1
    21    31    32    1
    22    32    33    1
    23    32    34    1
    24    32    35    1
    25     4     8    1
    26     8     9   ar
    27     9    10   ar
    28    10    11   ar
    29    11    12    1
    30    11    13   ar
    31    13    14   ar
    32     4     5    1
    33     5     6    1
    34     6     7    2
    35    22    17   ar
    36     6     1   am
    37    30    23   ar
    38    14     8   ar
    39    35    36    1
