@<TRIPOS>MOLECULE
*****
 24 27 0 0 0
SMALL
GASTEIGER

@<TRIPOS>ATOM
      1 O          67.4366   92.7368   11.5900 O.3     1  UNL1       -0.5055
      2 C          66.6283   92.3817   12.8027 C.ar    1  UNL1        0.1334
      3 C          66.9752   92.9757   14.1356 C.ar    1  UNL1        0.0363
      4 C          66.1669   92.6206   15.3483 C.ar    1  UNL1       -0.0014
      5 C          65.0116   91.6715   15.2280 C.ar    1  UNL1       -0.0233
      6 C          64.6647   91.0776   13.8951 C.ar    1  UNL1       -0.0086
      7 C          65.4730   91.4326   12.6824 C.ar    1  UNL1        0.0333
      8 C          63.5093   90.1284   13.7747 C.3     1  UNL1        0.0803
      9 N          62.7010   89.7733   14.9874 N.3     1  UNL1       -0.2946
     10 C          63.0481   90.3674   16.3204 C.3     1  UNL1        0.0735
     11 C          64.2033   91.3164   16.4406 C.3     1  UNL1        0.0432
     12 H          68.1582   93.3297   11.6651 H       1  UNL1        0.2922
     13 H          62.7576   88.7604   15.0927 H       1  UNL1        0.1235
     14 C          63.1623   89.5344   12.4418 C.3     1  UNL1        0.0360
     15 C          62.8484   90.9028   11.9138 C.3     1  UNL1        0.0057
     16 C          62.5014   90.3088   10.5808 C.3     1  UNL1        0.0008
     17 C          62.8153   88.9404   11.1088 C.3     1  UNL1        0.0057
     18 C          63.4763   88.1660   12.9699 C.ar    1  UNL1       -0.0212
     19 C          64.3288   88.0121   14.1944 C.ar    1  UNL1       -0.0034
     20 C          64.6427   86.6436   14.7225 C.ar    1  UNL1        0.0111
     21 C          64.1042   85.4292   14.0260 C.ar    1  UNL1        0.0577
     22 CL         64.4182   84.0607   14.5540 Cl      1  UNL1       -0.0822
     23 C          63.2518   85.5832   12.8014 C.ar    1  UNL1        0.0111
     24 C          62.9378   86.9515   12.2733 C.ar    1  UNL1       -0.0034
@<TRIPOS>BOND
     1     1     2    1
     2     2     3   ar
     3     3     4   ar
     4     4     5   ar
     5     5     6   ar
     6     6     7   ar
     7     6     8    1
     8     8    14    1
     9    14    18    1
    10    18    19   ar
    11    19    20   ar
    12    20    21   ar
    13    21    22    1
    14    21    23   ar
    15    23    24   ar
    16    14    15    1
    17    15    16    1
    18    16    17    1
    19     8     9    1
    20     9    10    1
    21    10    11    1
    22     7     2   ar
    23    17    14    1
    24    11     5    1
    25    24    18   ar
    26     1    12    1
    27     9    13    1
@<TRIPOS>MOLECULE
*****
 24 27 0 0 0
SMALL
GASTEIGER

@<TRIPOS>ATOM
      1 O          63.1519   89.0803   16.2100 O.3     1  UNL1       -0.5055
      2 C          63.4334   89.7231   14.8842 C.ar    1  UNL1        0.1334
      3 C          64.6696   90.5524   14.7002 C.ar    1  UNL1        0.0363
      4 C          64.9512   91.1952   13.3745 C.ar    1  UNL1       -0.0014
      5 C          63.9964   91.0087   12.2328 C.ar    1  UNL1       -0.0233
      6 C          62.7601   90.1794   12.4168 C.ar    1  UNL1       -0.0086
      7 C          62.4786   89.5366   13.7425 C.ar    1  UNL1        0.0333
      8 C          61.8053   89.9929   11.2750 C.3     1  UNL1        0.0803
      9 N          62.0868   90.6357    9.9492 N.3     1  UNL1       -0.2946
     10 C          63.3232   91.4650    9.7653 C.3     1  UNL1        0.0735
     11 C          64.2779   91.6515   10.9070 C.3     1  UNL1        0.0432
     12 H          63.7483   89.1968   16.9232 H       1  UNL1        0.2922
     13 H          61.2926   91.2409    9.7409 H       1  UNL1        0.1235
     14 C          60.5690   89.1637   11.4590 C.3     1  UNL1        0.0360
     15 C          59.8588   90.3510   12.0385 C.3     1  UNL1        0.0057
     16 C          58.6225   89.5216   12.2225 C.3     1  UNL1        0.0008
     17 C          59.3327   88.3343   11.6430 C.3     1  UNL1        0.0057
     18 C          61.2792   87.9763   10.8795 C.ar    1  UNL1       -0.0212
     19 C          61.7057   86.8485   11.7716 C.ar    1  UNL1       -0.0034
     20 C          62.4159   85.6611   11.1920 C.ar    1  UNL1        0.0111
     21 C          62.6996   85.6017    9.7203 C.ar    1  UNL1        0.0577
     22 CL         63.4098   84.4143    9.1407 Cl      1  UNL1       -0.0822
     23 C          62.2731   86.7296    8.8281 C.ar    1  UNL1        0.0111
     24 C          61.5629   87.9169    9.4077 C.ar    1  UNL1       -0.0034
@<TRIPOS>BOND
     1     1     2    1
     2     2     3   ar
     3     3     4   ar
     4     4     5   ar
     5     5     6   ar
     6     6     7   ar
     7     6     8    1
     8     8    14    1
     9    14    18    1
    10    18    19   ar
    11    19    20   ar
    12    20    21   ar
    13    21    22    1
    14    21    23   ar
    15    23    24   ar
    16    14    15    1
    17    15    16    1
    18    16    17    1
    19     8     9    1
    20     9    10    1
    21    10    11    1
    22     7     2   ar
    23    17    14    1
    24    11     5    1
    25    24    18   ar
    26     1    12    1
    27     9    13    1
@<TRIPOS>MOLECULE
*****
 24 27 0 0 0
SMALL
GASTEIGER

@<TRIPOS>ATOM
      1 O          64.0238   91.6039   13.2721 O.3     1  UNL1       -0.5055
      2 C          63.8511   90.1139   13.2735 C.ar    1  UNL1        0.1334
      3 C          64.5985   89.2732   14.2657 C.ar    1  UNL1        0.0363
      4 C          64.4259   87.7832   14.2671 C.ar    1  UNL1       -0.0014
      5 C          63.5059   87.1338   13.2762 C.ar    1  UNL1       -0.0233
      6 C          62.7586   87.9745   12.2839 C.ar    1  UNL1       -0.0086
      7 C          62.9312   89.4645   12.2826 C.ar    1  UNL1        0.0333
      8 C          61.8386   87.3251   11.2929 C.3     1  UNL1        0.0803
      9 N          61.6660   85.8351   11.2943 N.3     1  UNL1       -0.2946
     10 C          62.4134   84.9944   12.2867 C.3     1  UNL1        0.0735
     11 C          63.3333   85.6438   13.2776 C.3     1  UNL1        0.0432
     12 H          64.5984   92.0095   13.8911 H       1  UNL1        0.2922
     13 H          61.9362   85.5065   10.3673 H       1  UNL1        0.1235
     14 C          61.0912   88.1658   10.3007 C.3     1  UNL1        0.0360
     15 C          60.8241   89.1866   11.3667 C.3     1  UNL1        0.0057
     16 C          60.0767   90.0273   10.3743 C.3     1  UNL1        0.0008
     17 C          60.3438   89.0065    9.3083 C.3     1  UNL1        0.0057
     18 C          61.3583   87.1450    9.2346 C.ar    1  UNL1       -0.0212
     19 C          62.7447   86.6051    9.0437 C.ar    1  UNL1       -0.0034
     20 C          63.0118   85.5842    7.9776 C.ar    1  UNL1        0.0111
     21 C          61.8926   85.1033    7.1024 C.ar    1  UNL1        0.0577
     22 CL         62.1597   84.0824    6.0363 Cl      1  UNL1       -0.0822
     23 C          60.5062   85.6432    7.2933 C.ar    1  UNL1        0.0111
     24 C          60.2390   86.6641    8.3594 C.ar    1  UNL1       -0.0034
@<TRIPOS>BOND
     1     1     2    1
     2     2     3   ar
     3     3     4   ar
     4     4     5   ar
     5     5     6   ar
     6     6     7   ar
     7     6     8    1
     8     8    14    1
     9    14    18    1
    10    18    19   ar
    11    19    20   ar
    12    20    21   ar
    13    21    22    1
    14    21    23   ar
    15    23    24   ar
    16    14    15    1
    17    15    16    1
    18    16    17    1
    19     8     9    1
    20     9    10    1
    21    10    11    1
    22     7     2   ar
    23    17    14    1
    24    11     5    1
    25    24    18   ar
    26     1    12    1
    27     9    13    1
@<TRIPOS>MOLECULE
*****
 24 27 0 0 0
SMALL
GASTEIGER

@<TRIPOS>ATOM
      1 O          69.1105   91.5158   12.6083 O.3     1  UNL1       -0.5055
      2 C          68.1760   91.8396   13.7361 C.ar    1  UNL1        0.1334
      3 C          68.6617   92.6443   14.9050 C.ar    1  UNL1        0.0363
      4 C          67.7272   92.9682   16.0328 C.ar    1  UNL1       -0.0014
      5 C          66.3069   92.4874   15.9915 C.ar    1  UNL1       -0.0233
      6 C          65.8213   91.6827   14.8226 C.ar    1  UNL1       -0.0086
      7 C          66.7558   91.3588   13.6948 C.ar    1  UNL1        0.0333
      8 C          64.4010   91.2018   14.7813 C.3     1  UNL1        0.0803
      9 N          63.4665   91.5257   15.9090 N.3     1  UNL1       -0.2946
     10 C          63.9522   92.3304   17.0780 C.3     1  UNL1        0.0735
     11 C          65.3724   92.8112   17.1193 C.3     1  UNL1        0.0432
     12 H          69.9977   91.8161   12.6341 H       1  UNL1        0.2922
     13 H          63.1349   90.6358   16.2815 H       1  UNL1        0.1235
     14 C          63.9153   90.3971   13.6123 C.3     1  UNL1        0.0360
     15 C          63.9995   91.6141   12.7396 C.3     1  UNL1        0.0057
     16 C          63.5138   90.8093   11.5706 C.3     1  UNL1        0.0008
     17 C          63.4296   89.5923   12.4433 C.3     1  UNL1        0.0057
     18 C          63.8311   89.1801   14.4851 C.ar    1  UNL1       -0.0212
     19 C          63.2208   89.2780   15.8518 C.ar    1  UNL1       -0.0034
     20 C          63.1367   88.0609   16.7246 C.ar    1  UNL1        0.0111
     21 C          63.6628   86.7460   16.2306 C.ar    1  UNL1        0.0577
     22 CL         63.5786   85.5288   17.1033 Cl      1  UNL1       -0.0822
     23 C          64.2731   86.6480   14.8639 C.ar    1  UNL1        0.0111
     24 C          64.3573   87.8650   13.9911 C.ar    1  UNL1       -0.0034
@<TRIPOS>BOND
     1     1     2    1
     2     2     3   ar
     3     3     4   ar
     4     4     5   ar
     5     5     6   ar
     6     6     7   ar
     7     6     8    1
     8     8    14    1
     9    14    18    1
    10    18    19   ar
    11    19    20   ar
    12    20    21   ar
    13    21    22    1
    14    21    23   ar
    15    23    24   ar
    16    14    15    1
    17    15    16    1
    18    16    17    1
    19     8     9    1
    20     9    10    1
    21    10    11    1
    22     7     2   ar
    23    17    14    1
    24    11     5    1
    25    24    18   ar
    26     1    12    1
    27     9    13    1
@<TRIPOS>MOLECULE
*****
 24 27 0 0 0
SMALL
GASTEIGER

@<TRIPOS>ATOM
      1 O          58.5405   87.8684    6.8551 O.3     1  UNL1       -0.5055
      2 C          59.5802   87.2681    7.7543 C.ar    1  UNL1        0.1334
      3 C          60.2927   86.0135    7.3441 C.ar    1  UNL1        0.0363
      4 C          61.3324   85.4132    8.2433 C.ar    1  UNL1       -0.0014
      5 C          61.6596   86.0675    9.5528 C.ar    1  UNL1       -0.0233
      6 C          60.9472   87.3221    9.9630 C.ar    1  UNL1       -0.0086
      7 C          59.9075   87.9224    9.0638 C.ar    1  UNL1        0.0333
      8 C          61.2744   87.9765   11.2725 C.3     1  UNL1        0.0803
      9 N          62.3141   87.3762   12.1718 N.3     1  UNL1       -0.2946
     10 C          63.0266   86.1215   11.7615 C.3     1  UNL1        0.0735
     11 C          62.6994   85.4672   10.4520 C.3     1  UNL1        0.0432
     12 H          58.3361   87.4597    6.0371 H       1  UNL1        0.2922
     13 H          61.8552   87.1769   13.0606 H       1  UNL1        0.1235
     14 C          60.5620   89.2311   11.6828 C.3     1  UNL1        0.0360
     15 C          59.2993   88.4475   11.8863 C.3     1  UNL1        0.0057
     16 C          58.5868   89.7021   12.2966 C.3     1  UNL1        0.0008
     17 C          59.8495   90.4858   12.0930 C.3     1  UNL1        0.0057
     18 C          61.8247   90.0147   11.4792 C.ar    1  UNL1       -0.0212
     19 C          62.1505   90.5737   10.1259 C.ar    1  UNL1       -0.0034
     20 C          63.4133   91.3574    9.9224 C.ar    1  UNL1        0.0111
     21 C          64.3501   91.5820   11.0721 C.ar    1  UNL1        0.0577
     22 CL         65.6129   92.3656   10.8686 Cl      1  UNL1       -0.0822
     23 C          64.0243   91.0229   12.4253 C.ar    1  UNL1        0.0111
     24 C          62.7616   90.2393   12.6289 C.ar    1  UNL1       -0.0034
@<TRIPOS>BOND
     1     1     2    1
     2     2     3   ar
     3     3     4   ar
     4     4     5   ar
     5     5     6   ar
     6     6     7   ar
     7     6     8    1
     8     8    14    1
     9    14    18    1
    10    18    19   ar
    11    19    20   ar
    12    20    21   ar
    13    21    22    1
    14    21    23   ar
    15    23    24   ar
    16    14    15    1
    17    15    16    1
    18    16    17    1
    19     8     9    1
    20     9    10    1
    21    10    11    1
    22     7     2   ar
    23    17    14    1
    24    11     5    1
    25    24    18   ar
    26     1    12    1
    27     9    13    1
@<TRIPOS>MOLECULE
*****
 24 27 0 0 0
SMALL
GASTEIGER

@<TRIPOS>ATOM
      1 O          62.3737   81.3069   12.0056 O.3     1  UNL1       -0.5055
      2 C          62.7903   82.6170   12.6057 C.ar    1  UNL1        0.1334
      3 C          63.3874   82.6558   13.9812 C.ar    1  UNL1        0.0363
      4 C          63.8041   83.9658   14.5813 C.ar    1  UNL1       -0.0014
      5 C          63.6237   85.2371   13.8059 C.ar    1  UNL1       -0.0233
      6 C          63.0266   85.1983   12.4304 C.ar    1  UNL1       -0.0086
      7 C          62.6100   83.8883   11.8303 C.ar    1  UNL1        0.0333
      8 C          62.8462   86.4697   11.6549 C.3     1  UNL1        0.0803
      9 N          63.2629   87.7797   12.2550 N.3     1  UNL1       -0.2946
     10 C          63.8600   87.8185   13.6306 C.3     1  UNL1        0.0735
     11 C          64.0403   86.5472   14.4060 C.3     1  UNL1        0.0432
     12 H          62.4864   80.5128   12.4899 H       1  UNL1        0.2922
     13 H          62.4318   88.3707   12.2780 H       1  UNL1        0.1235
     14 C          62.2492   86.4309   10.2795 C.3     1  UNL1        0.0360
     15 C          63.0813   85.2266    9.9522 C.3     1  UNL1        0.0057
     16 C          62.4842   85.1879    8.5767 C.3     1  UNL1        0.0008
     17 C          61.6521   86.3922    8.9039 C.3     1  UNL1        0.0057
     18 C          61.4170   87.6352   10.6067 C.ar    1  UNL1       -0.0212
     19 C          61.7770   88.9738   10.0336 C.ar    1  UNL1       -0.0034
     20 C          60.9448   90.1782   10.3609 C.ar    1  UNL1        0.0111
     21 C          59.7527   90.0438   11.2613 C.ar    1  UNL1        0.0577
     22 CL         58.9204   91.2482   11.5886 Cl      1  UNL1       -0.0822
     23 C          59.3927   88.7052   11.8344 C.ar    1  UNL1        0.0111
     24 C          60.2248   87.5009   11.5072 C.ar    1  UNL1       -0.0034
@<TRIPOS>BOND
     1     1     2    1
     2     2     3   ar
     3     3     4   ar
     4     4     5   ar
     5     5     6   ar
     6     6     7   ar
     7     6     8    1
     8     8    14    1
     9    14    18    1
    10    18    19   ar
    11    19    20   ar
    12    20    21   ar
    13    21    22    1
    14    21    23   ar
    15    23    24   ar
    16    14    15    1
    17    15    16    1
    18    16    17    1
    19     8     9    1
    20     9    10    1
    21    10    11    1
    22     7     2   ar
    23    17    14    1
    24    11     5    1
    25    24    18   ar
    26     1    12    1
    27     9    13    1
@<TRIPOS>MOLECULE
*****
 24 27 0 0 0
SMALL
GASTEIGER

@<TRIPOS>ATOM
      1 O          65.2296   85.5303   15.3031 O.3     1  UNL1       -0.5055
      2 C          64.4183   86.2335   14.2556 C.ar    1  UNL1        0.1334
      3 C          63.7410   85.4431   13.1756 C.ar    1  UNL1        0.0363
      4 C          62.9297   86.1463   12.1281 C.ar    1  UNL1       -0.0014
      5 C          62.7957   87.6399   12.1605 C.ar    1  UNL1       -0.0233
      6 C          63.4730   88.4303   13.2405 C.ar    1  UNL1       -0.0086
      7 C          64.2843   87.7271   14.2881 C.ar    1  UNL1        0.0333
      8 C          63.3391   89.9240   13.2730 C.3     1  UNL1        0.0803
      9 N          62.5278   90.6272   12.2255 N.3     1  UNL1       -0.2946
     10 C          61.8505   89.8367   11.1455 C.3     1  UNL1        0.0735
     11 C          61.9844   88.3431   11.1130 C.3     1  UNL1        0.0432
     12 H          65.3133   84.5972   15.2828 H       1  UNL1        0.2922
     13 H          63.1537   91.2848   11.7606 H       1  UNL1        0.1235
     14 C          64.0164   90.7144   14.3530 C.3     1  UNL1        0.0360
     15 C          63.0913   90.1162   15.3710 C.3     1  UNL1        0.0057
     16 C          63.7687   90.9067   16.4510 C.3     1  UNL1        0.0008
     17 C          64.6938   91.5049   15.4330 C.3     1  UNL1        0.0057
     18 C          64.9415   91.3126   13.3351 C.ar    1  UNL1       -0.0212
     19 C          66.3991   91.4746   13.6497 C.ar    1  UNL1       -0.0034
     20 C          67.3242   92.0729   12.6317 C.ar    1  UNL1        0.0111
     21 C          66.7917   92.5091   11.2990 C.ar    1  UNL1        0.0577
     22 CL         67.7168   93.1073   10.2810 Cl      1  UNL1       -0.0822
     23 C          65.3340   92.3471   10.9843 C.ar    1  UNL1        0.0111
     24 C          64.4089   91.7489   12.0023 C.ar    1  UNL1       -0.0034
@<TRIPOS>BOND
     1     1     2    1
     2     2     3   ar
     3     3     4   ar
     4     4     5   ar
     5     5     6   ar
     6     6     7   ar
     7     6     8    1
     8     8    14    1
     9    14    18    1
    10    18    19   ar
    11    19    20   ar
    12    20    21   ar
    13    21    22    1
    14    21    23   ar
    15    23    24   ar
    16    14    15    1
    17    15    16    1
    18    16    17    1
    19     8     9    1
    20     9    10    1
    21    10    11    1
    22     7     2   ar
    23    17    14    1
    24    11     5    1
    25    24    18   ar
    26     1    12    1
    27     9    13    1
@<TRIPOS>MOLECULE
*****
 24 27 0 0 0
SMALL
GASTEIGER

@<TRIPOS>ATOM
      1 O          59.7865   88.1335   11.8729 O.3     1  UNL1       -0.5055
      2 C          60.6980   87.1790   11.1601 C.ar    1  UNL1        0.1334
      3 C          60.6508   87.0720    9.6647 C.ar    1  UNL1        0.0363
      4 C          61.5624   86.1175    8.9519 C.ar    1  UNL1       -0.0014
      5 C          62.5211   85.2701    9.7346 C.ar    1  UNL1       -0.0233
      6 C          62.5684   85.3771   11.2300 C.ar    1  UNL1       -0.0086
      7 C          61.6568   86.3316   11.9427 C.ar    1  UNL1        0.0333
      8 C          63.5272   84.5297   12.0127 C.3     1  UNL1        0.0803
      9 N          64.4387   83.5752   11.2999 N.3     1  UNL1       -0.2946
     10 C          64.3915   83.4681    9.8045 C.3     1  UNL1        0.0735
     11 C          63.4327   84.3156    9.0218 C.3     1  UNL1        0.0432
     12 H          59.1876   88.6629   11.3840 H       1  UNL1        0.2922
     13 H          64.2377   82.6454   11.6682 H       1  UNL1        0.1235
     14 C          63.5744   84.6367   13.5081 C.3     1  UNL1        0.0360
     15 C          64.0117   86.0668   13.3919 C.3     1  UNL1        0.0057
     16 C          64.0589   86.1738   14.8874 C.3     1  UNL1        0.0008
     17 C          63.6216   84.7437   15.0036 C.3     1  UNL1        0.0057
     18 C          63.1371   83.2066   13.6243 C.ar    1  UNL1       -0.0212
     19 C          61.7261   82.8834   14.0175 C.ar    1  UNL1       -0.0034
     20 C          61.2888   81.4532   14.1337 C.ar    1  UNL1        0.0111
     21 C          62.2625   80.3463   13.8567 C.ar    1  UNL1        0.0577
     22 CL         61.8252   78.9162   13.9729 Cl      1  UNL1       -0.0822
     23 C          63.6734   80.6696   13.4634 C.ar    1  UNL1        0.0111
     24 C          64.1108   82.0997   13.3472 C.ar    1  UNL1       -0.0034
@<TRIPOS>BOND
     1     1     2    1
     2     2     3   ar
     3     3     4   ar
     4     4     5   ar
     5     5     6   ar
     6     6     7   ar
     7     6     8    1
     8     8    14    1
     9    14    18    1
    10    18    19   ar
    11    19    20   ar
    12    20    21   ar
    13    21    22    1
    14    21    23   ar
    15    23    24   ar
    16    14    15    1
    17    15    16    1
    18    16    17    1
    19     8     9    1
    20     9    10    1
    21    10    11    1
    22     7     2   ar
    23    17    14    1
    24    11     5    1
    25    24    18   ar
    26     1    12    1
    27     9    13    1
@<TRIPOS>MOLECULE
*****
 24 27 0 0 0
SMALL
GASTEIGER

@<TRIPOS>ATOM
      1 O          63.2175   85.0847   13.6492 O.3     1  UNL1       -0.5055
      2 C          62.7564   85.3957   12.2561 C.ar    1  UNL1        0.1334
      3 C          63.1525   84.5027   11.1180 C.ar    1  UNL1        0.0363
      4 C          62.6914   84.8138    9.7249 C.ar    1  UNL1       -0.0014
      5 C          61.8341   86.0179    9.4700 C.ar    1  UNL1       -0.0233
      6 C          61.4379   86.9109   10.6082 C.ar    1  UNL1       -0.0086
      7 C          61.8990   86.5999   12.0012 C.ar    1  UNL1        0.0333
      8 C          60.5805   88.1152   10.3533 C.3     1  UNL1        0.0803
      9 N          60.1194   88.4262    8.9603 N.3     1  UNL1       -0.2946
     10 C          60.5156   87.5331    7.8221 C.3     1  UNL1        0.0735
     11 C          61.3729   86.3290    8.0770 C.3     1  UNL1        0.0432
     12 H          63.7530   84.3325   13.8084 H       1  UNL1        0.2922
     13 H          60.4659   89.3592    8.7369 H       1  UNL1        0.1235
     14 C          60.1843   89.0082   11.4915 C.3     1  UNL1        0.0360
     15 C          58.9154   88.2270   11.6628 C.3     1  UNL1        0.0057
     16 C          58.5192   89.1201   12.8010 C.3     1  UNL1        0.0008
     17 C          59.7882   89.9014   12.6297 C.3     1  UNL1        0.0057
     18 C          61.4533   89.7895   11.3202 C.ar    1  UNL1       -0.0212
     19 C          61.7633   90.4371   10.0032 C.ar    1  UNL1       -0.0034
     20 C          63.0324   91.2184    9.8319 C.ar    1  UNL1        0.0111
     21 C          63.9912   91.3520   10.9776 C.ar    1  UNL1        0.0577
     22 CL         65.2603   92.1333   10.8063 Cl      1  UNL1       -0.0822
     23 C          63.6812   90.7044   12.2946 C.ar    1  UNL1        0.0111
     24 C          62.4122   89.9231   12.4659 C.ar    1  UNL1       -0.0034
@<TRIPOS>BOND
     1     1     2    1
     2     2     3   ar
     3     3     4   ar
     4     4     5   ar
     5     5     6   ar
     6     6     7   ar
     7     6     8    1
     8     8    14    1
     9    14    18    1
    10    18    19   ar
    11    19    20   ar
    12    20    21   ar
    13    21    22    1
    14    21    23   ar
    15    23    24   ar
    16    14    15    1
    17    15    16    1
    18    16    17    1
    19     8     9    1
    20     9    10    1
    21    10    11    1
    22     7     2   ar
    23    17    14    1
    24    11     5    1
    25    24    18   ar
    26     1    12    1
    27     9    13    1
