@<TRIPOS>MOLECULE
*****
 37 41 0 0 0
SMALL
GASTEIGER

@<TRIPOS>ATOM
      1 N          64.3087   90.5892   13.5004 N.ar    1  UNL1       -0.3063
      2 C          65.3400   91.6236   13.1589 C.ar    1  UNL1        0.1240
      3 C          65.0384   92.1427   11.7843 C.ar    1  UNL1        0.1174
      4 C          63.8207   91.4291   11.2762 C.ar    1  UNL1        0.1157
      5 N          63.0643   91.5296    9.9848 N.ar    1  UNL1       -0.2229
      6 C          61.8569   90.6699    9.7540 C.ar    1  UNL1        0.1812
      7 N          61.4060   89.7098   10.8146 N.ar    1  UNL1       -0.2712
      8 C          62.1624   89.6093   12.1060 C.ar    1  UNL1        0.2797
      9 O          61.7115   88.6493   13.1666 O.2     1  UNL1       -0.2653
     10 C          63.3698   90.4691   12.3368 C.ar    1  UNL1        0.1366
     11 N          66.4738   92.0619   14.0378 N.pl3   1  UNL1       -0.2926
     12 C          66.1924   92.6355   15.3949 C.3     1  UNL1        0.0922
     13 C          67.3262   93.0738   16.2737 C.3     1  UNL1        0.0229
     14 C          68.7414   92.9385   15.7954 C.3     1  UNL1        0.0190
     15 C          69.0229   92.3649   14.4383 C.3     1  UNL1        0.0709
     16 N          70.4381   92.2296   13.9600 N.3     1  UNL1       -0.3208
     17 C          67.8891   91.9266   13.5595 C.3     1  UNL1        0.1075
     18 H          71.0744   92.5735   14.6793 H       1  UNL1        0.1189
     19 H          70.5624   92.7751   13.1071 H       1  UNL1        0.1189
     20 C          65.8175   93.1913   11.0472 C.1     1  UNL1        0.1048
     21 N          66.5967   94.2399   10.3099 N.1     1  UNL1       -0.1907
     22 C          64.2303   89.8115   14.7806 C.3     1  UNL1        0.1332
     23 C          63.9635   85.9968   15.8419 C.3     1  UNL1        0.0261
     24 C          63.7979   87.4875   15.8585 C.2     1  UNL1       -0.0460
     25 C          63.0345   88.1449   16.9699 C.3     1  UNL1        0.0261
     26 C          64.3958   88.3208   14.7640 C.2     1  UNL1       -0.0102
     27 C          60.1987   88.8501   10.5838 C.3     1  UNL1        0.1563
     28 C          60.1736   87.8848    9.4360 C.ar    1  UNL1        0.0820
     29 N          59.1664   88.0520    8.3372 N.ar    1  UNL1       -0.2462
     30 C          59.1413   87.0867    7.1894 C.ar    1  UNL1        0.0985
     31 C          60.1235   85.9541    7.1404 C.ar    1  UNL1        0.0207
     32 C          61.1309   85.7868    8.2392 C.ar    1  UNL1        0.0027
     33 C          62.1131   84.6542    8.1902 C.ar    1  UNL1        0.0001
     34 C          63.1203   84.4870    9.2890 C.ar    1  UNL1        0.0000
     35 C          63.1454   85.4523   10.4369 C.ar    1  UNL1        0.0000
     36 C          62.1632   86.5849   10.4859 C.ar    1  UNL1        0.0012
     37 C          61.1559   86.7522    9.3871 C.ar    1  UNL1        0.0155
@<TRIPOS>BOND
     1    23    24    1
     2    24    25    1
     3    24    26    2
     4    26    22    1
     5    22     1    1
     6     1     2   ar
     7     2    11    1
     8    11    12    1
     9    12    13    1
    10    13    14    1
    11    14    15    1
    12    15    16    1
    13    15    17    1
    14     2     3   ar
    15     3    20    1
    16    20    21    3
    17     3     4   ar
    18     4     5   ar
    19     5     6   ar
    20     6     7   ar
    21     7    27    1
    22    27    28    1
    23    28    29   ar
    24    29    30   ar
    25    30    31   ar
    26    31    32   ar
    27    32    33   ar
    28    33    34   ar
    29    34    35   ar
    30    35    36   ar
    31    36    37   ar
    32     7     8   ar
    33     8     9    2
    34     8    10   ar
    35    10     1   ar
    36    17    11    1
    37    10     4   ar
    38    37    28   ar
    39    37    32   ar
    40    16    18    1
    41    16    19    1
@<TRIPOS>MOLECULE
*****
 37 41 0 0 0
SMALL
GASTEIGER

@<TRIPOS>ATOM
      1 N          62.9423   85.6816   11.6473 N.ar    1  UNL1       -0.3063
      2 C          63.2816   84.4665   12.4588 C.ar    1  UNL1        0.1240
      3 C          63.7766   84.9269   13.7979 C.ar    1  UNL1        0.1174
      4 C          63.7432   86.4264   13.8140 C.ar    1  UNL1        0.1157
      5 N          64.1157   87.4274   14.8672 N.ar    1  UNL1       -0.2229
      6 C          63.9725   88.8948   14.5914 C.ar    1  UNL1        0.1812
      7 N          63.4569   89.3613   13.2622 N.ar    1  UNL1       -0.2712
      8 C          63.0844   88.3603   12.2090 C.ar    1  UNL1        0.2797
      9 O          62.5688   88.8267   10.8799 O.2     1  UNL1       -0.2653
     10 C          63.2276   86.8928   12.4849 C.ar    1  UNL1        0.1366
     11 N          63.1492   83.0413   12.0100 N.pl3   1  UNL1       -0.2926
     12 C          63.5669   82.6497   10.6236 C.3     1  UNL1        0.0922
     13 C          63.4345   81.2246   10.1749 C.3     1  UNL1        0.0229
     14 C          62.8843   80.1911   11.1125 C.3     1  UNL1        0.0190
     15 C          62.4666   80.5827   12.4989 C.3     1  UNL1        0.0709
     16 N          61.9164   79.5492   13.4365 N.3     1  UNL1       -0.3208
     17 C          62.5990   82.0078   12.9476 C.3     1  UNL1        0.1075
     18 H          61.8973   78.6424   12.9697 H       1  UNL1        0.1189
     19 H          60.9695   79.8098   13.7120 H       1  UNL1        0.1189
     20 C          64.2260   84.0429   14.9233 C.1     1  UNL1        0.1048
     21 N          64.6754   83.1588   16.0487 N.1     1  UNL1       -0.1907
     22 C          62.4110   85.6849   10.2446 C.3     1  UNL1        0.1332
     23 C          59.1624   86.8254    8.2709 C.3     1  UNL1        0.0261
     24 C          60.5087   86.2314    8.5616 C.2     1  UNL1       -0.0460
     25 C          61.2992   85.5900    7.4598 C.3     1  UNL1        0.0261
     26 C          61.0647   86.2788    9.9539 C.2     1  UNL1       -0.0102
     27 C          63.3138   90.8287   12.9863 C.3     1  UNL1        0.1563
     28 C          64.5123   91.6370   12.5861 C.ar    1  UNL1        0.0820
     29 N          64.7654   91.9367   11.1384 N.ar    1  UNL1       -0.2462
     30 C          65.9640   92.7451   10.7382 C.ar    1  UNL1        0.0985
     31 C          66.9094   93.2537   11.7858 C.ar    1  UNL1        0.0207
     32 C          66.6563   92.9539   13.2336 C.ar    1  UNL1        0.0027
     33 C          67.6017   93.4625   14.2812 C.ar    1  UNL1        0.0001
     34 C          67.3486   93.1628   15.7290 C.ar    1  UNL1        0.0000
     35 C          66.1501   92.3545   16.1292 C.ar    1  UNL1        0.0000
     36 C          65.2046   91.8459   15.0816 C.ar    1  UNL1        0.0012
     37 C          65.4578   92.1456   13.6338 C.ar    1  UNL1        0.0155
@<TRIPOS>BOND
     1    23    24    1
     2    24    25    1
     3    24    26    2
     4    26    22    1
     5    22     1    1
     6     1     2   ar
     7     2    11    1
     8    11    12    1
     9    12    13    1
    10    13    14    1
    11    14    15    1
    12    15    16    1
    13    15    17    1
    14     2     3   ar
    15     3    20    1
    16    20    21    3
    17     3     4   ar
    18     4     5   ar
    19     5     6   ar
    20     6     7   ar
    21     7    27    1
    22    27    28    1
    23    28    29   ar
    24    29    30   ar
    25    30    31   ar
    26    31    32   ar
    27    32    33   ar
    28    33    34   ar
    29    34    35   ar
    30    35    36   ar
    31    36    37   ar
    32     7     8   ar
    33     8     9    2
    34     8    10   ar
    35    10     1   ar
    36    17    11    1
    37    10     4   ar
    38    37    28   ar
    39    37    32   ar
    40    16    18    1
    41    16    19    1
@<TRIPOS>MOLECULE
*****
 37 41 0 0 0
SMALL
GASTEIGER

@<TRIPOS>ATOM
      1 N          62.9789   85.5927   11.7114 N.ar    1  UNL1       -0.3063
      2 C          63.3134   84.3600   12.4978 C.ar    1  UNL1        0.1240
      3 C          63.8195   84.7910   13.8424 C.ar    1  UNL1        0.1174
      4 C          63.7976   86.2902   13.8871 C.ar    1  UNL1        0.1157
      5 N          64.1837   87.2682   14.9569 N.ar    1  UNL1       -0.2229
      6 C          64.0503   88.7416   14.7097 C.ar    1  UNL1        0.1812
      7 N          63.5307   89.2371   13.3926 N.ar    1  UNL1       -0.2712
      8 C          63.1447   88.2591   12.3228 C.ar    1  UNL1        0.2797
      9 O          62.6252   88.7546   11.0058 O.2     1  UNL1       -0.2653
     10 C          63.2781   86.7856   12.5701 C.ar    1  UNL1        0.1366
     11 N          63.1676   82.9446   12.0228 N.pl3   1  UNL1       -0.2926
     12 C          63.5487   82.5818   10.6182 C.3     1  UNL1        0.0922
     13 C          63.4028   81.1665   10.1433 C.3     1  UNL1        0.0229
     14 C          62.8758   80.1140   11.0731 C.3     1  UNL1        0.0190
     15 C          62.4947   80.4768   12.4777 C.3     1  UNL1        0.0709
     16 N          61.9677   79.4242   13.4075 N.3     1  UNL1       -0.3208
     17 C          62.6406   81.8921   12.9526 C.3     1  UNL1        0.1075
     18 H          61.9353   78.5275   12.9225 H       1  UNL1        0.1189
     19 H          61.0286   79.6797   13.7129 H       1  UNL1        0.1189
     20 C          64.2685   83.8825   14.9483 C.1     1  UNL1        0.1048
     21 N          64.7176   82.9740   16.0542 N.1     1  UNL1       -0.1907
     22 C          62.4397   85.6266   10.3121 C.3     1  UNL1        0.1332
     23 C          59.2178   86.8897    8.3694 C.3     1  UNL1        0.0261
     24 C          60.5465   86.2508    8.6460 C.2     1  UNL1       -0.0460
     25 C          61.3105   85.5970    7.5328 C.3     1  UNL1        0.0261
     26 C          61.1111   86.2655   10.0355 C.2     1  UNL1       -0.0102
     27 C          63.3973   90.7106   13.1454 C.3     1  UNL1        0.1563
     28 C          64.5064   91.6406   13.5391 C.ar    1  UNL1        0.0820
     29 N          64.9199   91.7484   14.9769 N.ar    1  UNL1       -0.2462
     30 C          66.0290   92.6784   15.3706 C.ar    1  UNL1        0.0985
     31 C          66.7245   93.5006   14.3266 C.ar    1  UNL1        0.0207
     32 C          66.3110   93.3929   12.8887 C.ar    1  UNL1        0.0027
     33 C          67.0065   94.2151   11.8446 C.ar    1  UNL1        0.0001
     34 C          66.5929   94.1074   10.4068 C.ar    1  UNL1        0.0000
     35 C          65.4838   93.1773   10.0131 C.ar    1  UNL1        0.0000
     36 C          64.7883   92.3551   11.0571 C.ar    1  UNL1        0.0012
     37 C          65.2019   92.4629   12.4949 C.ar    1  UNL1        0.0155
@<TRIPOS>BOND
     1    23    24    1
     2    24    25    1
     3    24    26    2
     4    26    22    1
     5    22     1    1
     6     1     2   ar
     7     2    11    1
     8    11    12    1
     9    12    13    1
    10    13    14    1
    11    14    15    1
    12    15    16    1
    13    15    17    1
    14     2     3   ar
    15     3    20    1
    16    20    21    3
    17     3     4   ar
    18     4     5   ar
    19     5     6   ar
    20     6     7   ar
    21     7    27    1
    22    27    28    1
    23    28    29   ar
    24    29    30   ar
    25    30    31   ar
    26    31    32   ar
    27    32    33   ar
    28    33    34   ar
    29    34    35   ar
    30    35    36   ar
    31    36    37   ar
    32     7     8   ar
    33     8     9    2
    34     8    10   ar
    35    10     1   ar
    36    17    11    1
    37    10     4   ar
    38    37    28   ar
    39    37    32   ar
    40    16    18    1
    41    16    19    1
@<TRIPOS>MOLECULE
*****
 37 41 0 0 0
SMALL
GASTEIGER

@<TRIPOS>ATOM
      1 N          63.5027   86.0043   12.8191 N.ar    1  UNL1       -0.3063
      2 C          62.8728   85.1592   11.7518 C.ar    1  UNL1        0.1240
      3 C          62.2138   86.0754   10.7638 C.ar    1  UNL1        0.1174
      4 C          62.4364   87.4868   11.2204 C.ar    1  UNL1        0.1157
      5 N          62.0166   88.8063   10.6437 N.ar    1  UNL1       -0.2229
      6 C          62.3934   90.0818   11.3372 C.ar    1  UNL1        0.1812
      7 N          63.1900   90.0379   12.6075 N.ar    1  UNL1       -0.2712
      8 C          63.6097   88.7184   13.1842 C.ar    1  UNL1        0.2797
      9 O          64.4063   88.6744   14.4544 O.2     1  UNL1       -0.2653
     10 C          63.2329   87.4428   12.4907 C.ar    1  UNL1        0.1366
     11 N          62.8977   83.6609   11.6845 N.pl3   1  UNL1       -0.2926
     12 C          63.5613   82.9730   10.5285 C.3     1  UNL1        0.0922
     13 C          63.5861   81.4747   10.4611 C.3     1  UNL1        0.0229
     14 C          62.9473   80.6644   11.5498 C.3     1  UNL1        0.0190
     15 C          62.2836   81.3522   12.7058 C.3     1  UNL1        0.0709
     16 N          61.6448   80.5419   13.7944 N.3     1  UNL1       -0.3208
     17 C          62.2588   82.8505   12.7731 C.3     1  UNL1        0.1075
     18 H          61.7548   79.5490   13.5884 H       1  UNL1        0.1189
     19 H          60.6521   80.7696   13.8499 H       1  UNL1        0.1189
     20 C          61.4639   85.6543    9.5349 C.1     1  UNL1        0.1048
     21 N          60.7139   85.2332    8.3059 N.1     1  UNL1       -0.1907
     22 C          64.2680   85.4995   14.0064 C.3     1  UNL1        0.1332
     23 C          62.8550   86.2484   17.6385 C.3     1  UNL1        0.0261
     24 C          63.0447   85.6070   16.2959 C.2     1  UNL1       -0.0460
     25 C          62.2009   84.4316   15.9004 C.3     1  UNL1        0.0261
     26 C          64.0782   86.1409   15.3490 C.2     1  UNL1       -0.0102
     27 C          63.5668   91.3135   13.3009 C.3     1  UNL1        0.1563
     28 C          64.8363   92.0216   12.9309 C.ar    1  UNL1        0.0820
     29 N          65.1143   92.3627   11.4970 N.ar    1  UNL1       -0.2462
     30 C          66.3838   93.0708   11.1270 C.ar    1  UNL1        0.0985
     31 C          67.3753   93.4378   12.1910 C.ar    1  UNL1        0.0207
     32 C          67.0973   93.0968   13.6250 C.ar    1  UNL1        0.0027
     33 C          68.0888   93.4638   14.6890 C.ar    1  UNL1        0.0001
     34 C          67.8108   93.1228   16.1230 C.ar    1  UNL1        0.0000
     35 C          66.5413   92.4146   16.4930 C.ar    1  UNL1        0.0000
     36 C          65.5498   92.0476   15.4290 C.ar    1  UNL1        0.0012
     37 C          65.8278   92.3887   13.9950 C.ar    1  UNL1        0.0155
@<TRIPOS>BOND
     1    23    24    1
     2    24    25    1
     3    24    26    2
     4    26    22    1
     5    22     1    1
     6     1     2   ar
     7     2    11    1
     8    11    12    1
     9    12    13    1
    10    13    14    1
    11    14    15    1
    12    15    16    1
    13    15    17    1
    14     2     3   ar
    15     3    20    1
    16    20    21    3
    17     3     4   ar
    18     4     5   ar
    19     5     6   ar
    20     6     7   ar
    21     7    27    1
    22    27    28    1
    23    28    29   ar
    24    29    30   ar
    25    30    31   ar
    26    31    32   ar
    27    32    33   ar
    28    33    34   ar
    29    34    35   ar
    30    35    36   ar
    31    36    37   ar
    32     7     8   ar
    33     8     9    2
    34     8    10   ar
    35    10     1   ar
    36    17    11    1
    37    10     4   ar
    38    37    28   ar
    39    37    32   ar
    40    16    18    1
    41    16    19    1
@<TRIPOS>MOLECULE
*****
 37 41 0 0 0
SMALL
GASTEIGER

@<TRIPOS>ATOM
      1 N          63.5815   86.0564   13.0486 N.ar    1  UNL1       -0.3063
      2 C          62.9241   85.2790   11.9471 C.ar    1  UNL1        0.1240
      3 C          62.2501   86.2553   11.0292 C.ar    1  UNL1        0.1174
      4 C          62.4910   87.6360   11.5634 C.ar    1  UNL1        0.1157
      5 N          62.0673   88.9894   11.0747 N.ar    1  UNL1       -0.2229
      6 C          62.4666   90.2198   11.8340 C.ar    1  UNL1        0.1812
      7 N          63.2895   90.0969   13.0821 N.ar    1  UNL1       -0.2712
      8 C          63.7131   88.7436   13.5709 C.ar    1  UNL1        0.2797
      9 O          64.5360   88.6206   14.8189 O.2     1  UNL1       -0.2653
     10 C          63.3138   87.5131   12.8115 C.ar    1  UNL1        0.1366
     11 N          62.9382   83.7871   11.7909 N.pl3   1  UNL1       -0.2926
     12 C          63.5890   83.1647   10.5914 C.3     1  UNL1        0.0922
     13 C          63.6031   81.6730   10.4352 C.3     1  UNL1        0.0229
     14 C          62.9663   80.8036   11.4786 C.3     1  UNL1        0.0190
     15 C          62.3154   81.4260   12.6781 C.3     1  UNL1        0.0709
     16 N          61.6786   80.5567   13.7215 N.3     1  UNL1       -0.3208
     17 C          62.3013   82.9178   12.8343 C.3     1  UNL1        0.1075
     18 H          61.7804   79.5770   13.4562 H       1  UNL1        0.1189
     19 H          60.6879   80.7871   13.7977 H       1  UNL1        0.1189
     20 C          61.4718   85.9112    9.7939 C.1     1  UNL1        0.1048
     21 N          60.6934   85.5672    8.5586 N.1     1  UNL1       -0.1907
     22 C          64.3685   85.4785   14.1874 C.3     1  UNL1        0.1332
     23 C          62.8767   86.2023   17.7930 C.3     1  UNL1        0.0261
     24 C          63.0347   85.6410   16.4110 C.2     1  UNL1       -0.0460
     25 C          62.0167   84.6808   15.8706 C.3     1  UNL1        0.0261
     26 C          64.2105   86.0398   15.5694 C.2     1  UNL1       -0.0102
     27 C          63.6887   91.3274   13.8414 C.3     1  UNL1        0.1563
     28 C          65.1366   91.7032   13.9527 C.ar    1  UNL1        0.0820
     29 N          65.8133   91.6933   15.2913 N.ar    1  UNL1       -0.2462
     30 C          67.2612   92.0692   15.4026 C.ar    1  UNL1        0.0985
     31 C          68.0324   92.4549   14.1753 C.ar    1  UNL1        0.0207
     32 C          67.3557   92.4647   12.8366 C.ar    1  UNL1        0.0027
     33 C          68.1270   92.8504   11.6092 C.ar    1  UNL1        0.0001
     34 C          67.4503   92.8603   10.2706 C.ar    1  UNL1        0.0000
     35 C          66.0024   92.4844   10.1593 C.ar    1  UNL1        0.0000
     36 C          65.2312   92.0988   11.3866 C.ar    1  UNL1        0.0012
     37 C          65.9079   92.0889   12.7253 C.ar    1  UNL1        0.0155
@<TRIPOS>BOND
     1    23    24    1
     2    24    25    1
     3    24    26    2
     4    26    22    1
     5    22     1    1
     6     1     2   ar
     7     2    11    1
     8    11    12    1
     9    12    13    1
    10    13    14    1
    11    14    15    1
    12    15    16    1
    13    15    17    1
    14     2     3   ar
    15     3    20    1
    16    20    21    3
    17     3     4   ar
    18     4     5   ar
    19     5     6   ar
    20     6     7   ar
    21     7    27    1
    22    27    28    1
    23    28    29   ar
    24    29    30   ar
    25    30    31   ar
    26    31    32   ar
    27    32    33   ar
    28    33    34   ar
    29    34    35   ar
    30    35    36   ar
    31    36    37   ar
    32     7     8   ar
    33     8     9    2
    34     8    10   ar
    35    10     1   ar
    36    17    11    1
    37    10     4   ar
    38    37    28   ar
    39    37    32   ar
    40    16    18    1
    41    16    19    1
@<TRIPOS>MOLECULE
*****
 37 41 0 0 0
SMALL
GASTEIGER

@<TRIPOS>ATOM
      1 N          63.9989   87.7220   13.5067 N.ar    1  UNL1       -0.3063
      2 C          63.1250   86.8093   12.6984 C.ar    1  UNL1        0.1240
      3 C          62.5828   87.5927   11.5399 C.ar    1  UNL1        0.1174
      4 C          63.1216   88.9895   11.6321 C.ar    1  UNL1        0.1157
      5 N          62.9284   90.1991   10.7662 N.ar    1  UNL1       -0.2229
      6 C          63.6103   91.4885   11.1160 C.ar    1  UNL1        0.1812
      7 N          64.4856   91.5684   12.3316 N.ar    1  UNL1       -0.2712
      8 C          64.6788   90.3589   13.1975 C.ar    1  UNL1        0.2797
      9 O          65.5539   90.4387   14.4130 O.2     1  UNL1       -0.2653
     10 C          63.9968   89.0694   12.8477 C.ar    1  UNL1        0.1366
     11 N          62.8428   85.3665   12.9964 N.pl3   1  UNL1       -0.2926
     12 C          62.2600   84.9745   14.3218 C.3     1  UNL1        0.0922
     13 C          61.9779   83.5317   14.6198 C.3     1  UNL1        0.0229
     14 C          62.2785   82.4810   13.5923 C.3     1  UNL1        0.0190
     15 C          62.8613   82.8730   12.2670 C.3     1  UNL1        0.0709
     16 N          63.1619   81.8223   11.2396 N.3     1  UNL1       -0.3208
     17 C          63.1434   84.3158   11.9690 C.3     1  UNL1        0.1075
     18 H          62.9099   80.9050   11.6076 H       1  UNL1        0.1189
     19 H          64.1575   81.8381   11.0183 H       1  UNL1        0.1189
     20 C          61.6633   87.0709   10.4758 C.1     1  UNL1        0.1048
     21 N          60.7437   86.5490    9.4118 N.1     1  UNL1       -0.1907
     22 C          64.7440   87.3522   14.7549 C.3     1  UNL1        0.1332
     23 C          62.5311   86.6371   17.9708 C.3     1  UNL1        0.0261
     24 C          63.2332   87.3732   16.8685 C.2     1  UNL1       -0.0460
     25 C          63.1266   88.8667   16.7774 C.3     1  UNL1        0.0261
     26 C          64.0419   86.6160   15.8573 C.2     1  UNL1       -0.0102
     27 C          65.1675   92.8578   12.6813 C.3     1  UNL1        0.1563
     28 C          65.6514   93.7696   11.5930 C.ar    1  UNL1        0.0820
     29 N          65.0526   95.1361   11.4379 N.ar    1  UNL1       -0.2462
     30 C          65.5365   96.0479   10.3496 C.ar    1  UNL1        0.0985
     31 C          66.6191   95.5932    9.4163 C.ar    1  UNL1        0.0207
     32 C          67.2179   94.2266    9.5713 C.ar    1  UNL1        0.0027
     33 C          68.3006   93.7719    8.6380 C.ar    1  UNL1        0.0001
     34 C          68.8993   92.4054    8.7931 C.ar    1  UNL1        0.0000
     35 C          68.4155   91.4936    9.8814 C.ar    1  UNL1        0.0000
     36 C          67.3328   91.9483   10.8147 C.ar    1  UNL1        0.0012
     37 C          66.7341   93.3148   10.6596 C.ar    1  UNL1        0.0155
@<TRIPOS>BOND
     1    23    24    1
     2    24    25    1
     3    24    26    2
     4    26    22    1
     5    22     1    1
     6     1     2   ar
     7     2    11    1
     8    11    12    1
     9    12    13    1
    10    13    14    1
    11    14    15    1
    12    15    16    1
    13    15    17    1
    14     2     3   ar
    15     3    20    1
    16    20    21    3
    17     3     4   ar
    18     4     5   ar
    19     5     6   ar
    20     6     7   ar
    21     7    27    1
    22    27    28    1
    23    28    29   ar
    24    29    30   ar
    25    30    31   ar
    26    31    32   ar
    27    32    33   ar
    28    33    34   ar
    29    34    35   ar
    30    35    36   ar
    31    36    37   ar
    32     7     8   ar
    33     8     9    2
    34     8    10   ar
    35    10     1   ar
    36    17    11    1
    37    10     4   ar
    38    37    28   ar
    39    37    32   ar
    40    16    18    1
    41    16    19    1
