@<TRIPOS>MOLECULE
*****
 29 32 0 0 0
SMALL
GASTEIGER

@<TRIPOS>ATOM
      1 C          64.2824   91.1528   12.5872 C.ar    1  UNL1        0.0515
      2 C          64.9371   90.4323   13.7283 C.ar    1  UNL1        0.0160
      3 C          64.6407   88.9815   13.9682 C.ar    1  UNL1        0.0175
      4 C          63.6896   88.2513   13.0671 C.ar    1  UNL1        0.0718
      5 C          63.0349   88.9719   11.9260 C.ar    1  UNL1        0.0730
      6 CL         62.0837   88.2416   11.0247 Cl      1  UNL1       -0.0809
      7 C          63.3313   90.4226   11.6860 C.ar    1  UNL1        0.0273
      8 N          63.3932   86.8006   13.3070 N.am    1  UNL1       -0.2003
      9 C          63.3290   86.1232   14.6437 C.2     1  UNL1        0.2589
     10 O          63.5498   86.7775   15.9753 O.2     1  UNL1       -0.2691
     11 C          63.0051   84.6765   14.4152 C.ar    1  UNL1        0.0587
     12 C          62.8164   83.5285   15.3620 C.ar    1  UNL1        0.0055
     13 C          62.4918   82.1638   14.8308 C.ar    1  UNL1        0.0115
     14 C          62.3558   81.9472   13.3527 C.ar    1  UNL1        0.0578
     15 CL         62.0312   80.5824   12.8215 Cl      1  UNL1       -0.0822
     16 C          62.5446   83.0951   12.4059 C.ar    1  UNL1        0.0161
     17 C          62.8692   84.4598   12.9372 C.ar    1  UNL1        0.0595
     18 C          63.1091   85.7726   12.2523 C.2     1  UNL1        0.2589
     19 O          63.0714   86.0148   10.7724 O.2     1  UNL1       -0.2691
     20 C          65.8255   93.0032   11.6154 C.2     1  UNL1        0.2839
     21 O          66.7760   91.9522   11.1233 O.2     1  UNL1       -0.2665
     22 N          64.5788   92.6035   12.3473 N.am    1  UNL1       -0.2778
     23 H          63.9550   93.2933   12.6702 H       1  UNL1        0.1553
     24 C          67.2050   94.2621    8.9392 C.3     1  UNL1        0.0345
     25 C          66.7560   95.0326   10.1453 C.ar    1  UNL1        0.0204
     26 C          66.8622   96.5170   10.3332 C.ar    1  UNL1        0.0396
     27 C          66.2938   96.8558   11.6793 C.ar    1  UNL1        0.1795
     28 O          65.8363   95.5807   12.3235 O.2     1  UNL1       -0.4461
     29 C          66.1219   94.4539   11.3754 C.ar    1  UNL1        0.1948
@<TRIPOS>BOND
     1    24    25    1
     2    25    26   ar
     3    26    27   ar
     4    27    28   ar
     5    28    29   ar
     6    29    20    1
     7    20    21    2
     8    20    22   am
     9    22     1    1
    10     1     2   ar
    11     2     3   ar
    12     3     4   ar
    13     4     8    1
    14     8     9   am
    15     9    10    2
    16     9    11    1
    17    11    12   ar
    18    12    13   ar
    19    13    14   ar
    20    14    15    1
    21    14    16   ar
    22    16    17   ar
    23    17    18    1
    24    18    19    2
    25     4     5   ar
    26     5     6    1
    27     5     7   ar
    28    29    25   ar
    29     7     1   ar
    30    18     8   am
    31    17    11   ar
    32    22    23    1
@<TRIPOS>MOLECULE
*****
 29 32 0 0 0
SMALL
GASTEIGER

@<TRIPOS>ATOM
      1 C          63.9362   90.3445   12.6636 C.ar    1  UNL1        0.0515
      2 C          64.5693   89.5750   13.7847 C.ar    1  UNL1        0.0160
      3 C          64.3168   88.1026   13.9201 C.ar    1  UNL1        0.0175
      4 C          63.4313   87.3997   12.9344 C.ar    1  UNL1        0.0718
      5 C          62.7982   88.1692   11.8132 C.ar    1  UNL1        0.0730
      6 CL         61.9126   87.4663   10.8274 Cl      1  UNL1       -0.0809
      7 C          63.0507   89.6416   11.6778 C.ar    1  UNL1        0.0273
      8 N          63.1788   85.9273   13.0698 N.am    1  UNL1       -0.2003
      9 C          62.8880   85.1964   14.3470 C.2     1  UNL1        0.2589
     10 O          62.7986   85.8096   15.7130 O.2     1  UNL1       -0.2691
     11 C          62.7023   83.7447   14.0183 C.ar    1  UNL1        0.0587
     12 C          62.3957   82.5528   14.8758 C.ar    1  UNL1        0.0055
     13 C          62.2650   81.1945   14.2529 C.ar    1  UNL1        0.0115
     14 C          62.4411   81.0282   12.7726 C.ar    1  UNL1        0.0578
     15 CL         62.3105   79.6698   12.1497 Cl      1  UNL1       -0.0822
     16 C          62.7477   82.2201   11.9151 C.ar    1  UNL1        0.0161
     17 C          62.8783   83.5783   12.5380 C.ar    1  UNL1        0.0595
     18 C          63.1729   84.9273   11.9518 C.2     1  UNL1        0.2589
     19 O          63.4183   85.2241   10.5021 O.2     1  UNL1       -0.2691
     20 C          65.2642   92.3118   11.6072 C.2     1  UNL1        0.2839
     21 O          66.0874   91.3344   10.8216 O.2     1  UNL1       -0.2665
     22 N          64.1887   91.8169   12.5281 N.am    1  UNL1       -0.2778
     23 H          63.6484   92.4584   13.0437 H       1  UNL1        0.1553
     24 C          66.7100   94.2219   13.8233 C.3     1  UNL1        0.0345
     25 C          66.1813   94.6622   12.4905 C.ar    1  UNL1        0.0204
     26 C          66.2242   96.0577   11.9422 C.ar    1  UNL1        0.0396
     27 C          65.5862   96.0423   10.5847 C.ar    1  UNL1        0.1795
     28 O          65.1490   94.6372   10.2940 O.2     1  UNL1       -0.4461
     29 C          65.5167   93.7842   11.4718 C.ar    1  UNL1        0.1948
@<TRIPOS>BOND
     1    24    25    1
     2    25    26   ar
     3    26    27   ar
     4    27    28   ar
     5    28    29   ar
     6    29    20    1
     7    20    21    2
     8    20    22   am
     9    22     1    1
    10     1     2   ar
    11     2     3   ar
    12     3     4   ar
    13     4     8    1
    14     8     9   am
    15     9    10    2
    16     9    11    1
    17    11    12   ar
    18    12    13   ar
    19    13    14   ar
    20    14    15    1
    21    14    16   ar
    22    16    17   ar
    23    17    18    1
    24    18    19    2
    25     4     5   ar
    26     5     6    1
    27     5     7   ar
    28    29    25   ar
    29     7     1   ar
    30    18     8   am
    31    17    11   ar
    32    22    23    1
@<TRIPOS>MOLECULE
*****
 29 32 0 0 0
SMALL
GASTEIGER

@<TRIPOS>ATOM
      1 C          64.1306   91.1233   12.3767 C.ar    1  UNL1        0.0515
      2 C          64.7658   90.2963   13.4549 C.ar    1  UNL1        0.0160
      3 C          64.4514   88.8335   13.5616 C.ar    1  UNL1        0.0175
      4 C          63.5018   88.1977   12.5900 C.ar    1  UNL1        0.0718
      5 C          62.8666   89.0247   11.5118 C.ar    1  UNL1        0.0730
      6 CL         61.9170   88.3889   10.5402 Cl      1  UNL1       -0.0809
      7 C          63.1810   90.4875   11.4052 C.ar    1  UNL1        0.0273
      8 N          63.1874   86.7349   12.6966 N.am    1  UNL1       -0.2003
      9 C          62.8707   85.8156   11.5545 C.2     1  UNL1        0.2589
     10 O          62.8129   86.1976   10.1051 O.2     1  UNL1       -0.2691
     11 C          62.6221   84.4471   12.1161 C.ar    1  UNL1        0.0587
     12 C          62.2683   83.1435   11.4638 C.ar    1  UNL1        0.0055
     13 C          62.0776   81.9135   12.3008 C.ar    1  UNL1        0.0115
     14 C          62.2405   81.9871   13.7901 C.ar    1  UNL1        0.0578
     15 CL         62.0497   80.7569   14.6271 Cl      1  UNL1       -0.0822
     16 C          62.5943   83.2906   14.4424 C.ar    1  UNL1        0.0161
     17 C          62.7851   84.5206   13.6054 C.ar    1  UNL1        0.0595
     18 C          63.1344   85.9346   13.9642 C.2     1  UNL1        0.2589
     19 O          63.3866   86.4565   15.3477 O.2     1  UNL1       -0.2691
     20 C          65.6735   93.0377   11.5376 C.2     1  UNL1        0.2839
     21 O          66.5878   92.0265   10.9116 O.2     1  UNL1       -0.2665
     22 N          64.4450   92.5861   12.2701 N.am    1  UNL1       -0.2778
     23 H          63.8450   93.2498   12.6809 H       1  UNL1        0.1553
     24 C          66.9493   94.5409    8.9371 C.3     1  UNL1        0.0345
     25 C          66.5744   95.1915   10.2355 C.ar    1  UNL1        0.0204
     26 C          66.7199   96.6472   10.5668 C.ar    1  UNL1        0.0396
     27 C          66.2235   96.8560   11.9668 C.ar    1  UNL1        0.1795
     28 O          65.7711   95.5292   12.5008 O.2     1  UNL1       -0.4461
     29 C          65.9879   94.5005   11.4309 C.ar    1  UNL1        0.1948
@<TRIPOS>BOND
     1    24    25    1
     2    25    26   ar
     3    26    27   ar
     4    27    28   ar
     5    28    29   ar
     6    29    20    1
     7    20    21    2
     8    20    22   am
     9    22     1    1
    10     1     2   ar
    11     2     3   ar
    12     3     4   ar
    13     4     8    1
    14     8     9   am
    15     9    10    2
    16     9    11    1
    17    11    12   ar
    18    12    13   ar
    19    13    14   ar
    20    14    15    1
    21    14    16   ar
    22    16    17   ar
    23    17    18    1
    24    18    19    2
    25     4     5   ar
    26     5     6    1
    27     5     7   ar
    28    29    25   ar
    29     7     1   ar
    30    18     8   am
    31    17    11   ar
    32    22    23    1
@<TRIPOS>MOLECULE
*****
 29 32 0 0 0
SMALL
GASTEIGER

@<TRIPOS>ATOM
      1 C          64.3519   86.8897   14.5289 C.ar    1  UNL1        0.0515
      2 C          65.1386   85.6693   14.9053 C.ar    1  UNL1        0.0160
      3 C          64.8871   84.3685   14.2021 C.ar    1  UNL1        0.0175
      4 C          63.8490   84.2880   13.1224 C.ar    1  UNL1        0.0718
      5 C          63.0623   85.5084   12.7459 C.ar    1  UNL1        0.0730
      6 CL         62.0242   85.4279   11.6662 Cl      1  UNL1       -0.0809
      7 C          63.3138   86.8092   13.4492 C.ar    1  UNL1        0.0273
      8 N          63.5976   82.9871   12.4192 N.am    1  UNL1       -0.2003
      9 C          63.6591   82.7594   10.9378 C.2     1  UNL1        0.2589
     10 O          63.9829   83.7925    9.8996 O.2     1  UNL1       -0.2691
     11 C          63.3400   81.3171   10.6769 C.ar    1  UNL1        0.0587
     12 C          63.2516   80.5224    9.4079 C.ar    1  UNL1        0.0055
     13 C          62.9045   79.0640    9.4589 C.ar    1  UNL1        0.0115
     14 C          62.6458   78.4004   10.7790 C.ar    1  UNL1        0.0578
     15 CL         62.2987   76.9419   10.8300 Cl      1  UNL1       -0.0822
     16 C          62.7342   79.1951   12.0481 C.ar    1  UNL1        0.0161
     17 C          63.0813   80.6535   11.9970 C.ar    1  UNL1        0.0595
     18 C          63.2405   81.6856   13.0738 C.2     1  UNL1        0.2589
     19 O          63.0721   81.4564   14.5466 O.2     1  UNL1       -0.2691
     20 C          64.4426   89.4859   14.4931 C.2     1  UNL1        0.2839
     21 O          64.0303   89.4805   13.0509 O.2     1  UNL1       -0.2665
     22 N          64.6033   88.1906   15.2321 N.am    1  UNL1       -0.2778
     23 H          64.8739   88.1942   16.1787 H       1  UNL1        0.1553
     24 C          67.0768   91.3795   14.1401 C.3     1  UNL1        0.0345
     25 C          65.9049   91.6572   15.0341 C.ar    1  UNL1        0.0204
     26 C          65.7379   92.8540   15.9228 C.ar    1  UNL1        0.0396
     27 C          64.4239   92.7233   16.6343 C.ar    1  UNL1        0.1795
     28 O          63.7787   91.4457   16.1854 O.2     1  UNL1       -0.4461
     29 C          64.6940   90.7868   15.1964 C.ar    1  UNL1        0.1948
@<TRIPOS>BOND
     1    24    25    1
     2    25    26   ar
     3    26    27   ar
     4    27    28   ar
     5    28    29   ar
     6    29    20    1
     7    20    21    2
     8    20    22   am
     9    22     1    1
    10     1     2   ar
    11     2     3   ar
    12     3     4   ar
    13     4     8    1
    14     8     9   am
    15     9    10    2
    16     9    11    1
    17    11    12   ar
    18    12    13   ar
    19    13    14   ar
    20    14    15    1
    21    14    16   ar
    22    16    17   ar
    23    17    18    1
    24    18    19    2
    25     4     5   ar
    26     5     6    1
    27     5     7   ar
    28    29    25   ar
    29     7     1   ar
    30    18     8   am
    31    17    11   ar
    32    22    23    1
@<TRIPOS>MOLECULE
*****
 29 32 0 0 0
SMALL
GASTEIGER

@<TRIPOS>ATOM
      1 C          63.8872   89.6005   12.8231 C.ar    1  UNL1        0.0515
      2 C          63.0521   88.9415   11.7656 C.ar    1  UNL1        0.0160
      3 C          62.7655   87.4713   11.8443 C.ar    1  UNL1        0.0175
      4 C          63.3138   86.6600   12.9806 C.ar    1  UNL1        0.0718
      5 C          64.1488   87.3190   14.0381 C.ar    1  UNL1        0.0730
      6 CL         64.6972   86.5078   15.1745 Cl      1  UNL1       -0.0809
      7 C          64.4355   88.7893   13.9594 C.ar    1  UNL1        0.0273
      8 N          63.0271   85.1898   13.0593 N.am    1  UNL1       -0.2003
      9 C          62.3646   84.4807   14.2031 C.2     1  UNL1        0.2589
     10 O          61.8725   85.1173   15.4690 O.2     1  UNL1       -0.2691
     11 C          62.2806   83.0231   13.8588 C.ar    1  UNL1        0.0587
     12 C          61.7271   81.8458   14.6053 C.ar    1  UNL1        0.0055
     13 C          61.7841   80.4767   13.9952 C.ar    1  UNL1        0.0115
     14 C          62.3947   80.2850   12.6385 C.ar    1  UNL1        0.0578
     15 CL         62.4517   78.9158   12.0284 Cl      1  UNL1       -0.0822
     16 C          62.9483   81.4623   11.8921 C.ar    1  UNL1        0.0161
     17 C          62.8912   82.8314   12.5022 C.ar    1  UNL1        0.0595
     18 C          63.3526   84.1705   12.0081 C.2     1  UNL1        0.2589
     19 O          64.0219   84.4425   10.6935 O.2     1  UNL1       -0.2691
     20 C          65.5528   91.5828   13.0380 C.2     1  UNL1        0.2839
     21 O          66.6452   90.6245   13.4103 O.2     1  UNL1       -0.2665
     22 N          64.1739   91.0708   12.7444 N.am    1  UNL1       -0.2778
     23 H          63.4569   91.6997   12.5000 H       1  UNL1        0.1553
     24 C          65.6185   93.3812   10.3156 C.3     1  UNL1        0.0345
     25 C          65.8697   93.8797   11.7078 C.ar    1  UNL1        0.0204
     26 C          66.1952   95.2923   12.0933 C.ar    1  UNL1        0.0396
     27 C          66.3662   95.3387   13.5828 C.ar    1  UNL1        0.1795
     28 O          66.1463   93.9548   14.1179 O.2     1  UNL1       -0.4461
     29 C          65.8395   93.0530   12.9592 C.ar    1  UNL1        0.1948
@<TRIPOS>BOND
     1    24    25    1
     2    25    26   ar
     3    26    27   ar
     4    27    28   ar
     5    28    29   ar
     6    29    20    1
     7    20    21    2
     8    20    22   am
     9    22     1    1
    10     1     2   ar
    11     2     3   ar
    12     3     4   ar
    13     4     8    1
    14     8     9   am
    15     9    10    2
    16     9    11    1
    17    11    12   ar
    18    12    13   ar
    19    13    14   ar
    20    14    15    1
    21    14    16   ar
    22    16    17   ar
    23    17    18    1
    24    18    19    2
    25     4     5   ar
    26     5     6    1
    27     5     7   ar
    28    29    25   ar
    29     7     1   ar
    30    18     8   am
    31    17    11   ar
    32    22    23    1
@<TRIPOS>MOLECULE
*****
 29 32 0 0 0
SMALL
GASTEIGER

@<TRIPOS>ATOM
      1 C          64.0944   89.2096   13.2777 C.ar    1  UNL1        0.0515
      2 C          64.5731   88.3218   14.3879 C.ar    1  UNL1        0.0160
      3 C          64.2410   86.8591   14.3748 C.ar    1  UNL1        0.0175
      4 C          63.4301   86.2842   13.2515 C.ar    1  UNL1        0.0718
      5 C          62.9514   87.1719   12.1412 C.ar    1  UNL1        0.0730
      6 CL         62.1405   86.5970   11.0178 Cl      1  UNL1       -0.0809
      7 C          63.2836   88.6347   12.1544 C.ar    1  UNL1        0.0273
      8 N          63.0980   84.8215   13.2384 N.am    1  UNL1       -0.2003
      9 C          62.2717   84.0958   14.2585 C.2     1  UNL1        0.2589
     10 O          61.6325   84.7054   15.4708 O.2     1  UNL1       -0.2691
     11 C          62.1968   82.6534   13.8534 C.ar    1  UNL1        0.0587
     12 C          61.5192   81.4696   14.4773 C.ar    1  UNL1        0.0055
     13 C          61.6215   80.1200   13.8307 C.ar    1  UNL1        0.0115
     14 C          62.4015   79.9543   12.5602 C.ar    1  UNL1        0.0578
     15 CL         62.5039   78.6046   11.9136 Cl      1  UNL1       -0.0822
     16 C          63.0792   81.1381   11.9363 C.ar    1  UNL1        0.0161
     17 C          62.9768   82.4877   12.5829 C.ar    1  UNL1        0.0595
     18 C          63.5337   83.8276   12.2028 C.2     1  UNL1        0.2589
     19 O          64.3782   84.1220   10.9986 O.2     1  UNL1       -0.2691
     20 C          65.7553   91.1350   13.8108 C.2     1  UNL1        0.2839
     21 O          66.7519   90.1350   14.3177 O.2     1  UNL1       -0.2665
     22 N          64.4266   90.6723   13.2908 N.am    1  UNL1       -0.2778
     23 H          63.7725   91.3286   12.9581 H       1  UNL1        0.1553
     24 C          67.3776   92.7126   16.1621 C.3     1  UNL1        0.0345
     25 C          66.8332   93.3229   14.9048 C.ar    1  UNL1        0.0204
     26 C          66.9388   94.7654   14.5073 C.ar    1  UNL1        0.0396
     27 C          66.2583   94.9318   13.1809 C.ar    1  UNL1        0.1795
     28 O          65.7322   93.5921   12.7586 O.2     1  UNL1       -0.4461
     29 C          66.0874   92.5977   13.8239 C.ar    1  UNL1        0.1948
@<TRIPOS>BOND
     1    24    25    1
     2    25    26   ar
     3    26    27   ar
     4    27    28   ar
     5    28    29   ar
     6    29    20    1
     7    20    21    2
     8    20    22   am
     9    22     1    1
    10     1     2   ar
    11     2     3   ar
    12     3     4   ar
    13     4     8    1
    14     8     9   am
    15     9    10    2
    16     9    11    1
    17    11    12   ar
    18    12    13   ar
    19    13    14   ar
    20    14    15    1
    21    14    16   ar
    22    16    17   ar
    23    17    18    1
    24    18    19    2
    25     4     5   ar
    26     5     6    1
    27     5     7   ar
    28    29    25   ar
    29     7     1   ar
    30    18     8   am
    31    17    11   ar
    32    22    23    1
@<TRIPOS>MOLECULE
*****
 29 32 0 0 0
SMALL
GASTEIGER

@<TRIPOS>ATOM
      1 C          62.7942   86.4946   12.9990 C.ar    1  UNL1        0.0515
      2 C          63.8213   86.9979   13.9693 C.ar    1  UNL1        0.0160
      3 C          64.3836   88.3801   13.8166 C.ar    1  UNL1        0.0175
      4 C          63.9187   89.2590   12.6935 C.ar    1  UNL1        0.0718
      5 C          62.8915   88.7557   11.7232 C.ar    1  UNL1        0.0730
      6 CL         62.4266   89.6347   10.6000 Cl      1  UNL1       -0.0809
      7 C          62.3293   87.3735   11.8759 C.ar    1  UNL1        0.0273
      8 N          64.4809   90.6413   12.5408 N.am    1  UNL1       -0.2003
      9 C          65.1940   91.4253   13.6023 C.2     1  UNL1        0.2589
     10 O          65.4701   90.9648   15.0029 O.2     1  UNL1       -0.2691
     11 C          65.5826   92.7508   13.0173 C.ar    1  UNL1        0.0587
     12 C          66.3060   93.9302   13.5966 C.ar    1  UNL1        0.0055
     13 C          66.5564   95.1448   12.7528 C.ar    1  UNL1        0.0115
     14 C          66.0835   95.1799   11.3297 C.ar    1  UNL1        0.0578
     15 CL         66.3339   96.3946   10.4859 Cl      1  UNL1       -0.0822
     16 C          65.3601   94.0005   10.7505 C.ar    1  UNL1        0.0161
     17 C          65.1096   92.7859   11.5942 C.ar    1  UNL1        0.0595
     18 C          64.4288   91.4822   11.2998 C.2     1  UNL1        0.2589
     19 O          63.8052   91.0885    9.9935 O.2     1  UNL1       -0.2691
     20 C          63.1496   83.9259   13.1580 C.2     1  UNL1        0.2839
     21 O          64.6296   84.1216   13.0117 O.2     1  UNL1       -0.2665
     22 N          62.2319   85.1124   13.1517 N.am    1  UNL1       -0.2778
     23 H          61.2606   84.9839   13.2477 H       1  UNL1        0.1553
     24 C          63.4246   81.4939   10.9995 C.3     1  UNL1        0.0345
     25 C          62.7138   81.4258   12.3185 C.ar    1  UNL1        0.0204
     26 C          62.0045   80.2278   12.8771 C.ar    1  UNL1        0.0396
     27 C          61.4398   80.6053   14.2145 C.ar    1  UNL1        0.1795
     28 O          61.8000   82.0366   14.4825 O.2     1  UNL1       -0.4461
     29 C          62.5874   82.5436   13.3108 C.ar    1  UNL1        0.1948
@<TRIPOS>BOND
     1    24    25    1
     2    25    26   ar
     3    26    27   ar
     4    27    28   ar
     5    28    29   ar
     6    29    20    1
     7    20    21    2
     8    20    22   am
     9    22     1    1
    10     1     2   ar
    11     2     3   ar
    12     3     4   ar
    13     4     8    1
    14     8     9   am
    15     9    10    2
    16     9    11    1
    17    11    12   ar
    18    12    13   ar
    19    13    14   ar
    20    14    15    1
    21    14    16   ar
    22    16    17   ar
    23    17    18    1
    24    18    19    2
    25     4     5   ar
    26     5     6    1
    27     5     7   ar
    28    29    25   ar
    29     7     1   ar
    30    18     8   am
    31    17    11   ar
    32    22    23    1
@<TRIPOS>MOLECULE
*****
 29 32 0 0 0
SMALL
GASTEIGER

@<TRIPOS>ATOM
      1 C          64.0475   87.6005   13.7920 C.ar    1  UNL1        0.0515
      2 C          63.1573   87.2832   12.6272 C.ar    1  UNL1        0.0160
      3 C          62.9123   85.8556   12.2375 C.ar    1  UNL1        0.0175
      4 C          63.5574   84.7453   13.0126 C.ar    1  UNL1        0.0718
      5 C          64.4476   85.0625   14.1774 C.ar    1  UNL1        0.0730
      6 CL         65.0929   83.9522   14.9525 Cl      1  UNL1       -0.0809
      7 C          64.6926   86.4902   14.5671 C.ar    1  UNL1        0.0273
      8 N          63.3124   83.3176   12.6228 N.am    1  UNL1       -0.2003
      9 C          62.7556   82.2445   13.5106 C.2     1  UNL1        0.2589
     10 O          62.3459   82.4105   14.9440 O.2     1  UNL1       -0.2691
     11 C          62.6802   80.9761   12.7134 C.ar    1  UNL1        0.0587
     12 C          62.2129   79.5951   13.0662 C.ar    1  UNL1        0.0055
     13 C          62.2559   78.5035   12.0384 C.ar    1  UNL1        0.0115
     14 C          62.7662   78.7927   10.6579 C.ar    1  UNL1        0.0578
     15 CL         62.8092   77.7010    9.6301 Cl      1  UNL1       -0.0822
     16 C          63.2336   80.1737   10.3051 C.ar    1  UNL1        0.0161
     17 C          63.1906   81.2654   11.3328 C.ar    1  UNL1        0.0595
     18 C          63.5813   82.7125   11.2769 C.2     1  UNL1        0.2589
     19 O          64.1424   83.4288   10.0844 O.2     1  UNL1       -0.2691
     20 C          63.9117   89.5077   15.5510 C.2     1  UNL1        0.2839
     21 O          63.2858   88.5597   16.5306 O.2     1  UNL1       -0.2665
     22 N          64.2925   89.0281   14.1817 N.am    1  UNL1       -0.2778
     23 H          64.7032   89.6503   13.5388 H       1  UNL1        0.1553
     24 C          66.4960   91.3111   14.7032 C.3     1  UNL1        0.0345
     25 C          65.3446   91.7642   15.5510 C.ar    1  UNL1        0.0204
     26 C          65.1788   93.1259   16.1580 C.ar    1  UNL1        0.0396
     27 C          63.8885   93.1386   16.9228 C.ar    1  UNL1        0.1795
     28 O          63.2568   91.7847   16.7885 O.2     1  UNL1       -0.4461
     29 C          64.1567   90.9353   15.9407 C.ar    1  UNL1        0.1948
@<TRIPOS>BOND
     1    24    25    1
     2    25    26   ar
     3    26    27   ar
     4    27    28   ar
     5    28    29   ar
     6    29    20    1
     7    20    21    2
     8    20    22   am
     9    22     1    1
    10     1     2   ar
    11     2     3   ar
    12     3     4   ar
    13     4     8    1
    14     8     9   am
    15     9    10    2
    16     9    11    1
    17    11    12   ar
    18    12    13   ar
    19    13    14   ar
    20    14    15    1
    21    14    16   ar
    22    16    17   ar
    23    17    18    1
    24    18    19    2
    25     4     5   ar
    26     5     6    1
    27     5     7   ar
    28    29    25   ar
    29     7     1   ar
    30    18     8   am
    31    17    11   ar
    32    22    23    1
@<TRIPOS>MOLECULE
*****
 29 32 0 0 0
SMALL
GASTEIGER

@<TRIPOS>ATOM
      1 C          64.1392   89.2024   13.4197 C.ar    1  UNL1        0.0515
      2 C          63.3608   88.6539   12.2608 C.ar    1  UNL1        0.0160
      3 C          62.9996   87.1986   12.2214 C.ar    1  UNL1        0.0175
      4 C          63.4167   86.2917   13.3411 C.ar    1  UNL1        0.0718
      5 C          64.1950   86.8402   14.5000 C.ar    1  UNL1        0.0730
      6 CL         64.6122   85.9333   15.6197 Cl      1  UNL1       -0.0809
      7 C          64.5563   88.2955   14.5394 C.ar    1  UNL1        0.0273
      8 N          63.0554   84.8364   13.3017 N.am    1  UNL1       -0.2003
      9 C          63.5468   83.8327   12.3012 C.2     1  UNL1        0.2589
     10 O          64.4859   84.1080   11.1644 O.2     1  UNL1       -0.2691
     11 C          62.9344   82.5052   12.6371 C.ar    1  UNL1        0.0587
     12 C          63.0565   81.1533   11.9990 C.ar    1  UNL1        0.0055
     13 C          62.3086   79.9846   12.5690 C.ar    1  UNL1        0.0115
     14 C          61.4386   80.1680   13.7771 C.ar    1  UNL1        0.0578
     15 CL         60.6907   78.9992   14.3471 Cl      1  UNL1       -0.0822
     16 C          61.3165   81.5199   14.4152 C.ar    1  UNL1        0.0161
     17 C          62.0644   82.6886   13.8452 C.ar    1  UNL1        0.0595
     18 C          62.1392   84.1293   14.2560 C.2     1  UNL1        0.2589
     19 O          61.4234   84.7533   15.4171 O.2     1  UNL1       -0.2691
     20 C          65.8376   91.0844   13.9882 C.2     1  UNL1        0.2839
     21 O          66.8135   90.0559   14.4779 O.2     1  UNL1       -0.2665
     22 N          64.5005   90.6577   13.4591 N.am    1  UNL1       -0.2778
     23 H          63.8600   91.3327   13.1376 H       1  UNL1        0.1553
     24 C          67.6160   92.5577   16.2939 C.3     1  UNL1        0.0345
     25 C          67.0164   93.2169   15.0874 C.ar    1  UNL1        0.0204
     26 C          67.1289   94.6691   14.7288 C.ar    1  UNL1        0.0396
     27 C          66.3809   94.8894   13.4473 C.ar    1  UNL1        0.1795
     28 O          65.8062   93.5734   13.0139 O.2     1  UNL1       -0.4461
     29 C          66.1989   92.5398   14.0275 C.ar    1  UNL1        0.1948
@<TRIPOS>BOND
     1    24    25    1
     2    25    26   ar
     3    26    27   ar
     4    27    28   ar
     5    28    29   ar
     6    29    20    1
     7    20    21    2
     8    20    22   am
     9    22     1    1
    10     1     2   ar
    11     2     3   ar
    12     3     4   ar
    13     4     8    1
    14     8     9   am
    15     9    10    2
    16     9    11    1
    17    11    12   ar
    18    12    13   ar
    19    13    14   ar
    20    14    15    1
    21    14    16   ar
    22    16    17   ar
    23    17    18    1
    24    18    19    2
    25     4     5   ar
    26     5     6    1
    27     5     7   ar
    28    29    25   ar
    29     7     1   ar
    30    18     8   am
    31    17    11   ar
    32    22    23    1
