@<TRIPOS>MOLECULE
*****
 22 24 0 0 0
SMALL
GASTEIGER

@<TRIPOS>ATOM
      1 C          65.3168   91.4029   14.3891 C.ar    1  UNL1        0.0070
      2 C          65.9377   92.5739   15.0912 C.ar    1  UNL1        0.0354
      3 S          66.5430   93.4700   14.0516 S.2     1  UNL1       -0.0864
      4 C          66.2961   92.8528   12.7070 C.ar    1  UNL1        0.0296
      5 C          65.5382   91.5752   12.9155 C.ar    1  UNL1        0.0070
      6 C          64.2576   86.3238   14.6736 C.3     1  UNL1        0.0342
      7 C          64.0706   87.7205   15.1875 C.ar    1  UNL1        0.0118
      8 C          64.7872   88.8633   14.5314 C.ar    1  UNL1       -0.0013
      9 C          64.6001   90.2601   15.0452 C.ar    1  UNL1        0.0004
     10 C          63.6965   90.5140   16.2152 C.ar    1  UNL1        0.0031
     11 C          62.9799   89.3713   16.8713 C.ar    1  UNL1        0.0363
     12 C          63.1670   87.9745   16.3574 C.ar    1  UNL1        0.1296
     13 O          62.4503   86.8317   17.0136 O.3     1  UNL1       -0.5058
     14 H          61.8859   86.9904   17.7445 H       1  UNL1        0.2922
     15 C          66.7307   93.4145   11.3858 C.ar    1  UNL1        0.0090
     16 C          66.3817   94.8267   11.0199 C.ar    1  UNL1        0.0007
     17 C          66.8163   95.3883    9.6987 C.ar    1  UNL1        0.0031
     18 C          67.5999   94.5378    8.7434 C.ar    1  UNL1        0.0366
     19 C          67.9489   93.1256    9.1092 C.ar    1  UNL1        0.1337
     20 O          68.7325   92.2751    8.1539 O.3     1  UNL1       -0.5055
     21 C          67.5143   92.5639   10.4304 C.ar    1  UNL1        0.0371
     22 H          69.0040   92.6260    7.3286 H       1  UNL1        0.2922
@<TRIPOS>BOND
     1     6     7    1
     2     7     8   ar
     3     8     9   ar
     4     9     1    1
     5     1     2   ar
     6     2     3   ar
     7     3     4   ar
     8     4    15    1
     9    15    16   ar
    10    16    17   ar
    11    17    18   ar
    12    18    19   ar
    13    19    20    1
    14    19    21   ar
    15     4     5   ar
    16     9    10   ar
    17    10    11   ar
    18    11    12   ar
    19    12    13    1
    20    12     7   ar
    21     5     1   ar
    22    21    15   ar
    23    20    22    1
    24    13    14    1
@<TRIPOS>MOLECULE
*****
 22 24 0 0 0
SMALL
GASTEIGER

@<TRIPOS>ATOM
      1 C          63.8853   86.3927   15.0220 C.ar    1  UNL1        0.0070
      2 C          64.0692   85.2698   15.9994 C.ar    1  UNL1        0.0354
      3 S          64.0258   83.9792   15.2362 S.2     1  UNL1       -0.0864
      4 C          63.8150   84.3044   13.7871 C.ar    1  UNL1        0.0296
      5 C          63.7281   85.7960   13.6547 C.ar    1  UNL1        0.0070
      6 C          65.0647   91.3031   13.7985 C.3     1  UNL1        0.0342
      7 C          64.4522   90.3106   14.7418 C.ar    1  UNL1        0.0118
      8 C          64.4750   88.8479   14.4103 C.ar    1  UNL1       -0.0013
      9 C          63.8624   87.8555   15.3536 C.ar    1  UNL1        0.0004
     10 C          63.2271   88.3257   16.6284 C.ar    1  UNL1        0.0031
     11 C          63.2043   89.7884   16.9599 C.ar    1  UNL1        0.0363
     12 C          63.8168   90.7809   16.0166 C.ar    1  UNL1        0.1296
     13 O          63.7940   92.2436   16.3482 O.3     1  UNL1       -0.5058
     14 H          63.3971   92.5374   17.1445 H       1  UNL1        0.2922
     15 C          63.7095   83.3122   12.6671 C.ar    1  UNL1        0.0090
     16 C          64.1475   83.6932   11.2840 C.ar    1  UNL1        0.0007
     17 C          64.0420   82.7010   10.1640 C.ar    1  UNL1        0.0031
     18 C          63.4987   81.3278   10.4271 C.ar    1  UNL1        0.0366
     19 C          63.0607   80.9469   11.8103 C.ar    1  UNL1        0.1337
     20 O          62.5173   79.5737   12.0734 O.3     1  UNL1       -0.5055
     21 C          63.1661   81.9391   12.9303 C.ar    1  UNL1        0.0371
     22 H          62.4515   78.9539   11.3738 H       1  UNL1        0.2922
@<TRIPOS>BOND
     1     6     7    1
     2     7     8   ar
     3     8     9   ar
     4     9     1    1
     5     1     2   ar
     6     2     3   ar
     7     3     4   ar
     8     4    15    1
     9    15    16   ar
    10    16    17   ar
    11    17    18   ar
    12    18    19   ar
    13    19    20    1
    14    19    21   ar
    15     4     5   ar
    16     9    10   ar
    17    10    11   ar
    18    11    12   ar
    19    12    13    1
    20    12     7   ar
    21     5     1   ar
    22    21    15   ar
    23    20    22    1
    24    13    14    1
@<TRIPOS>MOLECULE
*****
 22 24 0 0 0
SMALL
GASTEIGER

@<TRIPOS>ATOM
      1 C          62.9483   90.1485   11.9645 C.ar    1  UNL1        0.0070
      2 C          61.5235   90.1893   12.4315 C.ar    1  UNL1        0.0354
      3 S          60.7319   89.2338   11.5888 S.2     1  UNL1       -0.0864
      4 C          61.6674   88.6024   10.6007 C.ar    1  UNL1        0.0296
      5 C          63.0373   89.1677   10.8330 C.ar    1  UNL1        0.0070
      6 C          66.2894   94.1100   11.5855 C.3     1  UNL1        0.0342
      7 C          65.7553   92.9288   12.3401 C.ar    1  UNL1        0.0118
      8 C          64.6189   92.1293   11.7750 C.ar    1  UNL1       -0.0013
      9 C          64.0848   90.9480   12.5296 C.ar    1  UNL1        0.0004
     10 C          64.6870   90.5664   13.8493 C.ar    1  UNL1        0.0031
     11 C          65.8234   91.3659   14.4144 C.ar    1  UNL1        0.0363
     12 C          66.3575   92.5471   13.6598 C.ar    1  UNL1        0.1296
     13 O          67.4939   93.3467   14.2250 O.3     1  UNL1       -0.5058
     14 H          67.8701   93.1082   15.0493 H       1  UNL1        0.2922
     15 C          61.2980   87.5845    9.5628 C.ar    1  UNL1        0.0090
     16 C          62.3276   86.6145    9.0638 C.ar    1  UNL1        0.0007
     17 C          61.9582   85.5966    8.0259 C.ar    1  UNL1        0.0031
     18 C          60.5592   85.5487    7.4870 C.ar    1  UNL1        0.0366
     19 C          59.5295   86.5186    7.9860 C.ar    1  UNL1        0.1337
     20 O          58.1305   86.4707    7.4470 O.3     1  UNL1       -0.5055
     21 C          59.8990   87.5366    9.0239 C.ar    1  UNL1        0.0371
     22 H          57.8997   85.8348    6.7987 H       1  UNL1        0.2922
@<TRIPOS>BOND
     1     6     7    1
     2     7     8   ar
     3     8     9   ar
     4     9     1    1
     5     1     2   ar
     6     2     3   ar
     7     3     4   ar
     8     4    15    1
     9    15    16   ar
    10    16    17   ar
    11    17    18   ar
    12    18    19   ar
    13    19    20    1
    14    19    21   ar
    15     4     5   ar
    16     9    10   ar
    17    10    11   ar
    18    11    12   ar
    19    12    13    1
    20    12     7   ar
    21     5     1   ar
    22    21    15   ar
    23    20    22    1
    24    13    14    1
@<TRIPOS>MOLECULE
*****
 22 24 0 0 0
SMALL
GASTEIGER

@<TRIPOS>ATOM
      1 C          63.0998   89.9940   12.9054 C.ar    1  UNL1        0.0070
      2 C          62.7728   89.7668   14.3516 C.ar    1  UNL1        0.0354
      3 S          63.8815   90.3522   15.1750 S.2     1  UNL1       -0.0864
      4 C          64.8938   90.9412   14.2377 C.ar    1  UNL1        0.0296
      5 C          64.4106   90.7198   12.8350 C.ar    1  UNL1        0.0070
      6 C          61.9668   86.5268    9.2047 C.3     1  UNL1        0.0342
      7 C          61.6965   87.8362    9.8847 C.ar    1  UNL1        0.0118
      8 C          62.5333   88.2604   11.0550 C.ar    1  UNL1       -0.0013
      9 C          62.2629   89.5698   11.7350 C.ar    1  UNL1        0.0004
     10 C          61.1557   90.4550   11.2447 C.ar    1  UNL1        0.0031
     11 C          60.3188   90.0308   10.0743 C.ar    1  UNL1        0.0363
     12 C          60.5892   88.7214    9.3943 C.ar    1  UNL1        0.1296
     13 O          59.7523   88.2972    8.2239 O.3     1  UNL1       -0.5058
     14 H          59.0607   88.8502    7.9176 H       1  UNL1        0.2922
     15 C          66.1658   91.6306   14.6336 C.ar    1  UNL1        0.0090
     16 C          66.1987   92.4998   15.8556 C.ar    1  UNL1        0.0007
     17 C          67.4707   93.1891   16.2515 C.ar    1  UNL1        0.0031
     18 C          68.7098   93.0093   15.4254 C.ar    1  UNL1        0.0366
     19 C          68.6768   92.1401   14.2034 C.ar    1  UNL1        0.1337
     20 O          69.9158   91.9603   13.3772 O.3     1  UNL1       -0.5055
     21 C          67.4048   91.4508   13.8075 C.ar    1  UNL1        0.0371
     22 H          70.7104   92.3909   13.6245 H       1  UNL1        0.2922
@<TRIPOS>BOND
     1     6     7    1
     2     7     8   ar
     3     8     9   ar
     4     9     1    1
     5     1     2   ar
     6     2     3   ar
     7     3     4   ar
     8     4    15    1
     9    15    16   ar
    10    16    17   ar
    11    17    18   ar
    12    18    19   ar
    13    19    20    1
    14    19    21   ar
    15     4     5   ar
    16     9    10   ar
    17    10    11   ar
    18    11    12   ar
    19    12    13    1
    20    12     7   ar
    21     5     1   ar
    22    21    15   ar
    23    20    22    1
    24    13    14    1
@<TRIPOS>MOLECULE
*****
 22 24 0 0 0
SMALL
GASTEIGER

@<TRIPOS>ATOM
      1 C          63.8995   87.1429   14.2380 C.ar    1  UNL1        0.0070
      2 C          64.0185   86.6039   15.6327 C.ar    1  UNL1        0.0354
      3 S          63.7268   85.1332   15.5878 S.2     1  UNL1       -0.0864
      4 C          63.4276   84.7632   14.1652 C.ar    1  UNL1        0.0296
      5 C          63.5343   86.0053   13.3310 C.ar    1  UNL1        0.0070
      6 C          63.0888   91.0145   10.8684 C.3     1  UNL1        0.0342
      7 C          63.7036   90.5048   12.1382 C.ar    1  UNL1        0.0118
      8 C          63.4942   89.0787   12.5532 C.ar    1  UNL1       -0.0013
      9 C          64.1090   88.5691   13.8230 C.ar    1  UNL1        0.0004
     10 C          64.9333   89.4855   14.6777 C.ar    1  UNL1        0.0031
     11 C          65.1427   90.9117   14.2627 C.ar    1  UNL1        0.0363
     12 C          64.5279   91.4213   12.9929 C.ar    1  UNL1        0.1296
     13 O          64.7374   92.8475   12.5779 O.3     1  UNL1       -0.5058
     14 H          65.2522   93.4200   13.1119 H       1  UNL1        0.2922
     15 C          63.0822   83.3920   13.6647 C.ar    1  UNL1        0.0090
     16 C          62.4113   82.4079   14.5765 C.ar    1  UNL1        0.0007
     17 C          62.0659   81.0366   14.0761 C.ar    1  UNL1        0.0031
     18 C          62.3915   80.6496   12.6639 C.ar    1  UNL1        0.0366
     19 C          63.0624   81.6337   11.7521 C.ar    1  UNL1        0.1337
     20 O          63.3880   81.2467   10.3400 O.3     1  UNL1       -0.5055
     21 C          63.4078   83.0049   12.2526 C.ar    1  UNL1        0.0371
     22 H          63.1722   80.3901   10.0274 H       1  UNL1        0.2922
@<TRIPOS>BOND
     1     6     7    1
     2     7     8   ar
     3     8     9   ar
     4     9     1    1
     5     1     2   ar
     6     2     3   ar
     7     3     4   ar
     8     4    15    1
     9    15    16   ar
    10    16    17   ar
    11    17    18   ar
    12    18    19   ar
    13    19    20    1
    14    19    21   ar
    15     4     5   ar
    16     9    10   ar
    17    10    11   ar
    18    11    12   ar
    19    12    13    1
    20    12     7   ar
    21     5     1   ar
    22    21    15   ar
    23    20    22    1
    24    13    14    1
@<TRIPOS>MOLECULE
*****
 22 24 0 0 0
SMALL
GASTEIGER

@<TRIPOS>ATOM
      1 C          62.9132   90.2987   11.6848 C.ar    1  UNL1        0.0070
      2 C          61.5223   90.2637   12.2452 C.ar    1  UNL1        0.0354
      3 S          60.7348   89.2509   11.4679 S.2     1  UNL1       -0.0864
      4 C          61.6391   88.6599   10.4272 C.ar    1  UNL1        0.0296
      5 C          62.9854   89.3076   10.5612 C.ar    1  UNL1        0.0070
      6 C          65.9647   91.9984   15.5318 C.3     1  UNL1        0.0342
      7 C          65.5608   92.0215   14.0874 C.ar    1  UNL1        0.0118
      8 C          64.4390   91.1486   13.6083 C.ar    1  UNL1       -0.0013
      9 C          64.0351   91.1717   12.1639 C.ar    1  UNL1        0.0004
     10 C          64.7529   92.0677   11.1986 C.ar    1  UNL1        0.0031
     11 C          65.8747   92.9406   11.6777 C.ar    1  UNL1        0.0363
     12 C          66.2786   92.9175   13.1221 C.ar    1  UNL1        0.1296
     13 O          67.4005   93.7904   13.6012 O.3     1  UNL1       -0.5058
     14 H          67.8489   94.3501   12.9982 H       1  UNL1        0.2922
     15 C          61.2630   87.6064    9.4279 C.ar    1  UNL1        0.0090
     16 C          62.2963   86.6368    8.9355 C.ar    1  UNL1        0.0007
     17 C          61.9202   85.5833    7.9362 C.ar    1  UNL1        0.0031
     18 C          60.5110   85.4993    7.4293 C.ar    1  UNL1        0.0366
     19 C          59.4778   86.4688    7.9216 C.ar    1  UNL1        0.1337
     20 O          58.0685   86.3848    7.4147 O.3     1  UNL1       -0.5055
     21 C          59.8538   87.5224    8.9209 C.ar    1  UNL1        0.0371
     22 H          57.8336   85.7267    6.7905 H       1  UNL1        0.2922
@<TRIPOS>BOND
     1     6     7    1
     2     7     8   ar
     3     8     9   ar
     4     9     1    1
     5     1     2   ar
     6     2     3   ar
     7     3     4   ar
     8     4    15    1
     9    15    16   ar
    10    16    17   ar
    11    17    18   ar
    12    18    19   ar
    13    19    20    1
    14    19    21   ar
    15     4     5   ar
    16     9    10   ar
    17    10    11   ar
    18    11    12   ar
    19    12    13    1
    20    12     7   ar
    21     5     1   ar
    22    21    15   ar
    23    20    22    1
    24    13    14    1
@<TRIPOS>MOLECULE
*****
 22 24 0 0 0
SMALL
GASTEIGER

@<TRIPOS>ATOM
      1 C          63.2951   90.5730   11.0681 C.ar    1  UNL1        0.0070
      2 C          63.8362   91.7770   10.3556 C.ar    1  UNL1        0.0354
      3 S          64.8388   92.4364   11.2554 S.2     1  UNL1       -0.0864
      4 C          64.9175   91.6400   12.5242 C.ar    1  UNL1        0.0296
      5 C          63.9634   90.4884   12.4083 C.ar    1  UNL1        0.0070
      6 C          61.4447   85.7390   10.6119 C.3     1  UNL1        0.0342
      7 C          61.3412   87.2038   10.3060 C.ar    1  UNL1        0.0118
      8 C          62.3699   88.1560   10.8400 C.ar    1  UNL1       -0.0013
      9 C          62.2663   89.6208   10.5341 C.ar    1  UNL1        0.0004
     10 C          61.1341   90.1335    9.6944 C.ar    1  UNL1        0.0031
     11 C          60.1054   89.1813    9.1605 C.ar    1  UNL1        0.0363
     12 C          60.2090   87.7165    9.4663 C.ar    1  UNL1        0.1296
     13 O          59.1802   86.7643    8.9323 O.3     1  UNL1       -0.5058
     14 H          58.4729   87.0845    8.4078 H       1  UNL1        0.2922
     15 C          65.7960   91.9421   13.7018 C.ar    1  UNL1        0.0090
     16 C          65.1908   92.1208   15.0627 C.ar    1  UNL1        0.0007
     17 C          66.0693   92.4229   16.2403 C.ar    1  UNL1        0.0031
     18 C          67.5530   92.5465   16.0572 C.ar    1  UNL1        0.0366
     19 C          68.1581   92.3679   14.6964 C.ar    1  UNL1        0.1337
     20 O          69.6418   92.4914   14.5132 O.3     1  UNL1       -0.5055
     21 C          67.2796   92.0657   13.5187 C.ar    1  UNL1        0.0371
     22 H          70.1906   92.6802   15.2489 H       1  UNL1        0.2922
@<TRIPOS>BOND
     1     6     7    1
     2     7     8   ar
     3     8     9   ar
     4     9     1    1
     5     1     2   ar
     6     2     3   ar
     7     3     4   ar
     8     4    15    1
     9    15    16   ar
    10    16    17   ar
    11    17    18   ar
    12    18    19   ar
    13    19    20    1
    14    19    21   ar
    15     4     5   ar
    16     9    10   ar
    17    10    11   ar
    18    11    12   ar
    19    12    13    1
    20    12     7   ar
    21     5     1   ar
    22    21    15   ar
    23    20    22    1
    24    13    14    1
@<TRIPOS>MOLECULE
*****
 22 24 0 0 0
SMALL
GASTEIGER

@<TRIPOS>ATOM
      1 C          63.1952   90.4417   10.9306 C.ar    1  UNL1        0.0070
      2 C          63.7966   91.6168   10.2183 C.ar    1  UNL1        0.0354
      3 S          64.7398   92.2992   11.1643 S.2     1  UNL1       -0.0864
      4 C          64.7213   91.5457   12.4613 C.ar    1  UNL1        0.0296
      5 C          63.7667   90.3978   12.3168 C.ar    1  UNL1        0.0070
      6 C          61.5003   85.5733   10.2780 C.3     1  UNL1        0.0342
      7 C          61.3500   87.0452   10.0310 C.ar    1  UNL1        0.0118
      8 C          62.3477   88.0075   10.6043 C.ar    1  UNL1       -0.0013
      9 C          62.1975   89.4794   10.3573 C.ar    1  UNL1        0.0004
     10 C          61.0496   89.9890    9.5372 C.ar    1  UNL1        0.0031
     11 C          60.0519   89.0267    8.9640 C.ar    1  UNL1        0.0363
     12 C          60.2022   87.5548    9.2109 C.ar    1  UNL1        0.1296
     13 O          59.2044   86.5925    8.6377 O.3     1  UNL1       -0.5058
     14 H          58.4874   86.9108    8.1253 H       1  UNL1        0.2922
     15 C          65.5175   91.8814   13.6874 C.ar    1  UNL1        0.0090
     16 C          67.0118   91.9836   13.6064 C.ar    1  UNL1        0.0007
     17 C          67.8081   92.3193   14.8325 C.ar    1  UNL1        0.0031
     18 C          67.1100   92.5526   16.1395 C.ar    1  UNL1        0.0366
     19 C          65.6157   92.4504   16.2205 C.ar    1  UNL1        0.1337
     20 O          64.9177   92.6837   17.5275 O.3     1  UNL1       -0.5055
     21 C          64.8195   92.1147   14.9944 C.ar    1  UNL1        0.0371
     22 H          65.4151   92.8934   18.2934 H       1  UNL1        0.2922
@<TRIPOS>BOND
     1     6     7    1
     2     7     8   ar
     3     8     9   ar
     4     9     1    1
     5     1     2   ar
     6     2     3   ar
     7     3     4   ar
     8     4    15    1
     9    15    16   ar
    10    16    17   ar
    11    17    18   ar
    12    18    19   ar
    13    19    20    1
    14    19    21   ar
    15     4     5   ar
    16     9    10   ar
    17    10    11   ar
    18    11    12   ar
    19    12    13    1
    20    12     7   ar
    21     5     1   ar
    22    21    15   ar
    23    20    22    1
    24    13    14    1
@<TRIPOS>MOLECULE
*****
 22 24 0 0 0
SMALL
GASTEIGER

@<TRIPOS>ATOM
      1 C          62.6217   88.7641   11.4586 C.ar    1  UNL1        0.0070
      2 C          63.0433   88.0307   12.6973 C.ar    1  UNL1        0.0354
      3 S          63.9451   88.9332   13.4860 S.2     1  UNL1       -0.0864
      4 C          64.0808   90.2245   12.7349 C.ar    1  UNL1        0.0296
      5 C          63.2629   90.1200   11.4819 C.ar    1  UNL1        0.0070
      6 C          59.4701   89.6000    7.4127 C.3     1  UNL1        0.0342
      7 C          60.1418   88.6527    8.3622 C.ar    1  UNL1        0.0118
      8 C          61.0459   89.1820    9.4357 C.ar    1  UNL1       -0.0013
      9 C          61.7175   88.2347   10.3851 C.ar    1  UNL1        0.0004
     10 C          61.4850   86.7581   10.2611 C.ar    1  UNL1        0.0031
     11 C          60.5809   86.2287    9.1877 C.ar    1  UNL1        0.0363
     12 C          59.9093   87.1761    8.2382 C.ar    1  UNL1        0.1296
     13 O          59.0051   86.6467    7.1647 O.3     1  UNL1       -0.5058
     14 H          58.8599   85.7242    7.0873 H       1  UNL1        0.2922
     15 C          64.8921   91.4118   13.1618 C.ar    1  UNL1        0.0090
     16 C          65.3129   92.4357   12.1496 C.ar    1  UNL1        0.0007
     17 C          66.1241   93.6229   12.5765 C.ar    1  UNL1        0.0031
     18 C          66.5145   93.7863   14.0156 C.ar    1  UNL1        0.0366
     19 C          66.0936   92.7624   15.0278 C.ar    1  UNL1        0.1337
     20 O          66.4840   92.9258   16.4669 O.3     1  UNL1       -0.5055
     21 C          65.2824   91.5751   14.6009 C.ar    1  UNL1        0.0371
     22 H          66.9908   93.6674   16.7336 H       1  UNL1        0.2922
@<TRIPOS>BOND
     1     6     7    1
     2     7     8   ar
     3     8     9   ar
     4     9     1    1
     5     1     2   ar
     6     2     3   ar
     7     3     4   ar
     8     4    15    1
     9    15    16   ar
    10    16    17   ar
    11    17    18   ar
    12    18    19   ar
    13    19    20    1
    14    19    21   ar
    15     4     5   ar
    16     9    10   ar
    17    10    11   ar
    18    11    12   ar
    19    12    13    1
    20    12     7   ar
    21     5     1   ar
    22    21    15   ar
    23    20    22    1
    24    13    14    1
