@<TRIPOS>MOLECULE
*****
 37 42 0 0 0
SMALL
GASTEIGER

@<TRIPOS>ATOM
      1 C          64.6850   84.7805   15.8696 C.3     1  UNL1        0.0722
      2 C          64.0854   85.5474   14.7283 C.ar    1  UNL1        0.1246
      3 N          64.2769   87.0090   14.4511 N.ar    1  UNL1       -0.2305
      4 C          63.4989   87.3523   13.2153 C.ar    1  UNL1        0.1015
      5 C          63.3158   88.6411   12.4703 C.ar    1  UNL1        0.0548
      6 C          62.4605   88.6805   11.2386 C.ar    1  UNL1        0.0047
      7 C          61.7883   87.4309   10.7521 C.ar    1  UNL1        0.0018
      8 C          61.9715   86.1420   11.4972 C.ar    1  UNL1        0.0191
      9 C          62.8268   86.1027   12.7288 C.ar    1  UNL1        0.0827
     10 N          63.1892   84.9872   13.6639 N.ar    1  UNL1       -0.2935
     11 C          62.7352   83.5618   13.5538 C.ar    1  UNL1        0.0703
     12 C          61.9046   82.9529   14.6444 C.ar    1  UNL1        0.0383
     13 C          61.4505   81.5275   14.5343 C.ar    1  UNL1        0.1004
     14 N          61.8271   80.7111   13.3337 N.ar    1  UNL1       -0.2414
     15 C          62.6576   81.3199   12.2431 C.ar    1  UNL1        0.1122
     16 C          63.0342   80.5034   11.0425 C.ar    1  UNL1        0.1578
     17 F          62.5801   79.0780   10.9324 F       1  UNL1       -0.2026
     18 C          63.8648   81.1123    9.9519 C.ar    1  UNL1        0.0335
     19 C          64.3188   82.5377   10.0620 C.ar    1  UNL1        0.0321
     20 C          63.9423   83.3542   11.2626 C.ar    1  UNL1        0.1431
     21 F          64.4906   84.5728   11.0707 F       1  UNL1       -0.2041
     22 C          63.1117   82.7453   12.3532 C.ar    1  UNL1        0.0635
     23 C          60.9330   87.4703    9.5205 C.ar    1  UNL1        0.0044
     24 C          60.4649   86.1916    8.8913 C.ar    1  UNL1        0.0208
     25 C          59.6096   86.2309    7.6597 C.ar    1  UNL1        0.1003
     26 N          59.2224   87.5489    7.0573 N.ar    1  UNL1       -0.2296
     27 C          59.6904   88.8276    7.6864 C.ar    1  UNL1        0.1254
     28 N          59.3032   90.1456    7.0841 N.pl3   1  UNL1       -0.3426
     29 C          60.5458   88.7883    8.9181 C.ar    1  UNL1        0.0339
     30 H          58.7418   90.1714    6.2757 H       1  UNL1        0.1437
     31 H          59.6104   90.9848    7.4971 H       1  UNL1        0.1437
     32 C          63.9880   89.8907   12.9568 C.ar    1  UNL1        0.1647
     33 N          64.0104   91.2128   12.2486 N.ar    1  UNL1       -0.1288
     34 N          64.7921   92.1767   13.0911 N.ar    1  UNL1       -0.1258
     35 C          65.2528   91.4505   14.3200 C.ar    1  UNL1        0.1992
     36 N          64.7559   90.0376   14.2370 N.ar    1  UNL1       -0.3187
     37 H          64.9071   89.3308   14.9055 H       1  UNL1        0.1690
@<TRIPOS>BOND
     1     1     2    1
     2     2     3   ar
     3     3     4   ar
     4     4     5   ar
     5     5    32    1
     6    32    33   ar
     7    33    34   ar
     8    34    35   ar
     9    35    36   ar
    10     5     6   ar
    11     6     7   ar
    12     7    23    1
    13    23    24   ar
    14    24    25   ar
    15    25    26   ar
    16    26    27   ar
    17    27    28    1
    18    27    29   ar
    19     7     8   ar
    20     8     9   ar
    21     9    10   ar
    22    10    11    1
    23    11    12   ar
    24    12    13   ar
    25    13    14   ar
    26    14    15   ar
    27    15    16   ar
    28    16    17    1
    29    16    18   ar
    30    18    19   ar
    31    19    20   ar
    32    20    21    1
    33    20    22   ar
    34    10     2   ar
    35    22    11   ar
    36     9     4   ar
    37    22    15   ar
    38    36    32   ar
    39    29    23   ar
    40    36    37    1
    41    28    30    1
    42    28    31    1
@<TRIPOS>MOLECULE
*****
 37 42 0 0 0
SMALL
GASTEIGER

@<TRIPOS>ATOM
      1 C          65.4262   84.3421   14.8852 C.3     1  UNL1        0.0722
      2 C          64.6138   85.3184   14.0872 C.ar    1  UNL1        0.1246
      3 N          64.3894   86.7625   14.4253 N.ar    1  UNL1       -0.2305
      4 C          63.5200   87.3587   13.3581 C.ar    1  UNL1        0.1015
      5 C          62.9729   88.7420   13.1659 C.ar    1  UNL1        0.0548
      6 C          62.1128   89.0497   11.9760 C.ar    1  UNL1        0.0047
      7 C          61.7999   87.9741   10.9785 C.ar    1  UNL1        0.0018
      8 C          62.3471   86.5907   11.1708 C.ar    1  UNL1        0.0191
      9 C          63.2071   86.2830   12.3606 C.ar    1  UNL1        0.0827
     10 N          63.8831   85.0221   12.8112 N.ar    1  UNL1       -0.2935
     11 C          63.8366   83.6973   12.1090 C.ar    1  UNL1        0.0703
     12 C          64.5438   83.5180   10.7984 C.ar    1  UNL1        0.0383
     13 C          64.4972   82.1933   10.0962 C.ar    1  UNL1        0.1004
     14 N          63.7435   81.0481   10.7047 N.ar    1  UNL1       -0.2414
     15 C          63.0363   81.2274   12.0153 C.ar    1  UNL1        0.1122
     16 C          62.2825   80.0821   12.6237 C.ar    1  UNL1        0.1578
     17 F          62.2360   78.7575   11.9215 F       1  UNL1       -0.2026
     18 C          61.5753   80.2615   13.9343 C.ar    1  UNL1        0.0335
     19 C          61.6219   81.5862   14.6365 C.ar    1  UNL1        0.0321
     20 C          62.3756   82.7315   14.0281 C.ar    1  UNL1        0.1431
     21 F          62.2326   83.7668   14.8825 F       1  UNL1       -0.2041
     22 C          63.0828   82.5521   12.7174 C.ar    1  UNL1        0.0635
     23 C          60.9399   88.2818    9.7887 C.ar    1  UNL1        0.0044
     24 C          60.8304   89.6911    9.2868 C.ar    1  UNL1        0.0208
     25 C          59.9703   89.9988    8.0970 C.ar    1  UNL1        0.1003
     26 N          59.2198   88.8972    7.4091 N.ar    1  UNL1       -0.2296
     27 C          59.3293   87.4880    7.9110 C.ar    1  UNL1        0.1254
     28 N          58.5787   86.3864    7.2232 N.pl3   1  UNL1       -0.3426
     29 C          60.1893   87.1802    9.1009 C.ar    1  UNL1        0.0339
     30 H          58.0142   86.5884    6.4422 H       1  UNL1        0.1437
     31 H          58.6506   85.4615    7.5526 H       1  UNL1        0.1437
     32 C          63.2858   89.8176   14.1634 C.ar    1  UNL1        0.1647
     33 N          63.8195   91.1837   13.8487 N.ar    1  UNL1       -0.1288
     34 N          63.9834   91.9264   15.1416 N.ar    1  UNL1       -0.1258
     35 C          63.5511   91.0193   16.2553 C.ar    1  UNL1        0.1992
     36 N          63.1200   89.7161   15.6508 N.ar    1  UNL1       -0.3187
     37 H          62.7867   88.9317   16.1437 H       1  UNL1        0.1690
@<TRIPOS>BOND
     1     1     2    1
     2     2     3   ar
     3     3     4   ar
     4     4     5   ar
     5     5    32    1
     6    32    33   ar
     7    33    34   ar
     8    34    35   ar
     9    35    36   ar
    10     5     6   ar
    11     6     7   ar
    12     7    23    1
    13    23    24   ar
    14    24    25   ar
    15    25    26   ar
    16    26    27   ar
    17    27    28    1
    18    27    29   ar
    19     7     8   ar
    20     8     9   ar
    21     9    10   ar
    22    10    11    1
    23    11    12   ar
    24    12    13   ar
    25    13    14   ar
    26    14    15   ar
    27    15    16   ar
    28    16    17    1
    29    16    18   ar
    30    18    19   ar
    31    19    20   ar
    32    20    21    1
    33    20    22   ar
    34    10     2   ar
    35    22    11   ar
    36     9     4   ar
    37    22    15   ar
    38    36    32   ar
    39    29    23   ar
    40    36    37    1
    41    28    30    1
    42    28    31    1
@<TRIPOS>MOLECULE
*****
 37 42 0 0 0
SMALL
GASTEIGER

@<TRIPOS>ATOM
      1 C          62.1517   91.8703   10.7681 C.3     1  UNL1        0.0722
      2 C          62.2285   90.3898   10.9962 C.ar    1  UNL1        0.1246
      3 N          61.6580   89.3292   10.1020 N.ar    1  UNL1       -0.2305
      4 C          61.9662   87.9937   10.7117 C.ar    1  UNL1        0.1015
      5 C          61.6522   86.5940   10.2737 C.ar    1  UNL1        0.0548
      6 C          62.0993   85.4293   11.1067 C.ar    1  UNL1        0.0047
      7 C          62.8603   85.6647   12.3777 C.ar    1  UNL1        0.0018
      8 C          63.1743   87.0645   12.8157 C.ar    1  UNL1        0.0191
      9 C          62.7273   88.2291   11.9826 C.ar    1  UNL1        0.0827
     10 N          62.8894   89.7099   12.1585 N.ar    1  UNL1       -0.2935
     11 C          63.5895   90.3912   13.2969 C.ar    1  UNL1        0.0703
     12 C          63.2016   90.0774   14.7115 C.ar    1  UNL1        0.0383
     13 C          63.9016   90.7586   15.8498 C.ar    1  UNL1        0.1004
     14 N          64.9895   91.7536   15.5735 N.ar    1  UNL1       -0.2414
     15 C          65.3773   92.0675   14.1589 C.ar    1  UNL1        0.1122
     16 C          66.4653   93.0626   13.8827 C.ar    1  UNL1        0.1578
     17 F          67.1653   93.7438   15.0210 F       1  UNL1       -0.2026
     18 C          66.8531   93.3764   12.4681 C.ar    1  UNL1        0.0335
     19 C          66.1530   92.6951   11.3297 C.ar    1  UNL1        0.0321
     20 C          65.0652   91.7001   11.6060 C.ar    1  UNL1        0.1431
     21 F          64.6394   91.2697   10.3994 F       1  UNL1       -0.2041
     22 C          64.6773   91.3862   13.0206 C.ar    1  UNL1        0.0635
     23 C          63.3074   84.5001   13.2108 C.ar    1  UNL1        0.0044
     24 C          64.1208   84.7324   14.4495 C.ar    1  UNL1        0.0208
     25 C          64.5678   83.5679   15.2825 C.ar    1  UNL1        0.1003
     26 N          64.2015   82.1710   14.8768 N.ar    1  UNL1       -0.2296
     27 C          63.3881   81.9387   13.6382 C.ar    1  UNL1        0.1254
     28 N          63.0218   80.5419   13.2325 N.pl3   1  UNL1       -0.3426
     29 C          62.9410   83.1033   12.8051 C.ar    1  UNL1        0.0339
     30 H          63.3152   79.7775   13.7793 H       1  UNL1        0.1437
     31 H          62.4879   80.3894   12.4195 H       1  UNL1        0.1437
     32 C          60.8912   86.3587    9.0027 C.ar    1  UNL1        0.1647
     33 N          61.3014   85.4456    7.8856 N.ar    1  UNL1       -0.1288
     34 N          60.2500   85.5177    6.8182 N.ar    1  UNL1       -0.1258
     35 C          59.1900   86.4754    7.2756 C.ar    1  UNL1        0.1992
     36 N          59.5862   86.9951    8.6257 N.ar    1  UNL1       -0.3187
     37 H          59.0789   87.6406    9.1690 H       1  UNL1        0.1690
@<TRIPOS>BOND
     1     1     2    1
     2     2     3   ar
     3     3     4   ar
     4     4     5   ar
     5     5    32    1
     6    32    33   ar
     7    33    34   ar
     8    34    35   ar
     9    35    36   ar
    10     5     6   ar
    11     6     7   ar
    12     7    23    1
    13    23    24   ar
    14    24    25   ar
    15    25    26   ar
    16    26    27   ar
    17    27    28    1
    18    27    29   ar
    19     7     8   ar
    20     8     9   ar
    21     9    10   ar
    22    10    11    1
    23    11    12   ar
    24    12    13   ar
    25    13    14   ar
    26    14    15   ar
    27    15    16   ar
    28    16    17    1
    29    16    18   ar
    30    18    19   ar
    31    19    20   ar
    32    20    21    1
    33    20    22   ar
    34    10     2   ar
    35    22    11   ar
    36     9     4   ar
    37    22    15   ar
    38    36    32   ar
    39    29    23   ar
    40    36    37    1
    41    28    30    1
    42    28    31    1
@<TRIPOS>MOLECULE
*****
 37 42 0 0 0
SMALL
GASTEIGER

@<TRIPOS>ATOM
      1 C          68.2614   92.7052   13.9672 C.3     1  UNL1        0.0722
      2 C          67.0042   91.9959   13.5595 C.ar    1  UNL1        0.1246
      3 N          66.0712   91.2593   14.4744 N.ar    1  UNL1       -0.2305
      4 C          64.9496   90.7067   13.6457 C.ar    1  UNL1        0.1015
      5 C          63.7410   89.8949   14.0061 C.ar    1  UNL1        0.0548
      6 C          62.7720   89.4781   12.9395 C.ar    1  UNL1        0.0047
      7 C          63.0118   89.8732   11.5125 C.ar    1  UNL1        0.0018
      8 C          64.2205   90.6851   11.1521 C.ar    1  UNL1        0.0191
      9 C          65.1894   91.1018   12.2187 C.ar    1  UNL1        0.0827
     10 N          66.4592   91.8986   12.1654 N.ar    1  UNL1       -0.2935
     11 C          67.0758   92.4936   10.9342 C.ar    1  UNL1        0.0703
     12 C          67.8930   91.6351   10.0148 C.ar    1  UNL1        0.0383
     13 C          68.5095   92.2300    8.7836 C.ar    1  UNL1        0.1004
     14 N          68.3089   93.6834    8.4718 N.ar    1  UNL1       -0.2414
     15 C          67.4917   94.5419    9.3911 C.ar    1  UNL1        0.1122
     16 C          67.2911   95.9954    9.0792 C.ar    1  UNL1        0.1578
     17 F          67.9077   96.5903    7.8480 F       1  UNL1       -0.2026
     18 C          66.4739   96.8539    9.9986 C.ar    1  UNL1        0.0335
     19 C          65.8574   96.2589   11.2298 C.ar    1  UNL1        0.0321
     20 C          66.0580   94.8055   11.5417 C.ar    1  UNL1        0.1431
     21 F          65.3916   94.5766   12.6932 F       1  UNL1       -0.2041
     22 C          66.8752   93.9470   10.6223 C.ar    1  UNL1        0.0635
     23 C          62.0430   89.4565   10.4459 C.ar    1  UNL1        0.0044
     24 C          61.0318   90.4355    9.9272 C.ar    1  UNL1        0.0208
     25 C          60.0629   90.0187    8.8606 C.ar    1  UNL1        0.1003
     26 N          60.1052   88.6230    8.3128 N.ar    1  UNL1       -0.2296
     27 C          61.1163   87.6440    8.8315 C.ar    1  UNL1        0.1254
     28 N          61.1586   86.2483    8.2837 N.pl3   1  UNL1       -0.3426
     29 C          62.0853   88.0607    9.8981 C.ar    1  UNL1        0.0339
     30 H          60.5227   85.9747    7.5837 H       1  UNL1        0.1437
     31 H          61.8223   85.6058    8.6242 H       1  UNL1        0.1437
     32 C          63.5011   89.4997   15.4331 C.ar    1  UNL1        0.1647
     33 N          63.3879   90.4355   16.5999 N.ar    1  UNL1       -0.1288
     34 N          63.1492   89.6135   17.8318 N.ar    1  UNL1       -0.1258
     35 C          63.1149   88.1698   17.4262 C.ar    1  UNL1        0.1992
     36 N          63.3324   88.0994   15.9438 N.ar    1  UNL1       -0.3187
     37 H          63.3596   87.2784   15.4012 H       1  UNL1        0.1690
@<TRIPOS>BOND
     1     1     2    1
     2     2     3   ar
     3     3     4   ar
     4     4     5   ar
     5     5    32    1
     6    32    33   ar
     7    33    34   ar
     8    34    35   ar
     9    35    36   ar
    10     5     6   ar
    11     6     7   ar
    12     7    23    1
    13    23    24   ar
    14    24    25   ar
    15    25    26   ar
    16    26    27   ar
    17    27    28    1
    18    27    29   ar
    19     7     8   ar
    20     8     9   ar
    21     9    10   ar
    22    10    11    1
    23    11    12   ar
    24    12    13   ar
    25    13    14   ar
    26    14    15   ar
    27    15    16   ar
    28    16    17    1
    29    16    18   ar
    30    18    19   ar
    31    19    20   ar
    32    20    21    1
    33    20    22   ar
    34    10     2   ar
    35    22    11   ar
    36     9     4   ar
    37    22    15   ar
    38    36    32   ar
    39    29    23   ar
    40    36    37    1
    41    28    30    1
    42    28    31    1
