@<TRIPOS>MOLECULE
*****
 49 55 0 0 0
SMALL
GASTEIGER

@<TRIPOS>ATOM
      1 C          60.0493   89.8661    6.8528 C.ar    1  UNL1        0.1320
      2 C          60.8589   90.3843    8.0043 C.ar    1  UNL1        0.0374
      3 C          60.9420   89.5960    9.2777 C.ar    1  UNL1        0.0414
      4 C          60.2155   88.2894    9.3997 C.ar    1  UNL1        0.1579
      5 C          59.4059   87.7711    8.2481 C.ar    1  UNL1        0.1370
      6 N          59.3228   88.5594    6.9747 N.ar    1  UNL1       -0.2260
      7 N          59.8002   92.2312    3.0326 N.pl3   1  UNL1       -0.3041
      8 C          61.1207   91.6907    3.4953 C.3     1  UNL1        0.1123
      9 C          61.2038   90.9023    4.7687 C.3     1  UNL1        0.1136
     10 N          59.9663   90.6544    5.5794 N.pl3   1  UNL1       -0.2897
     11 C          58.6458   91.1949    5.1167 C.3     1  UNL1        0.1136
     12 C          58.5627   91.9833    3.8433 C.3     1  UNL1        0.1123
     13 C          59.5509   94.5964   -0.7876 C.ar    1  UNL1        0.0699
     14 C          59.9397   95.2765    0.4916 C.ar    1  UNL1        0.0190
     15 C          60.0228   94.4881    1.7649 C.ar    1  UNL1        0.0160
     16 C          59.7171   93.0196    1.7591 C.ar    1  UNL1        0.0480
     17 C          59.3283   92.3395    0.4800 C.ar    1  UNL1        0.0160
     18 C          59.2452   93.1279   -0.7934 C.ar    1  UNL1        0.0190
     19 N          58.6447   96.3409   -4.1344 N.ar    1  UNL1       -0.2024
     20 N          60.0354   96.8551   -3.9068 N.ar    1  UNL1       -0.1442
     21 C          60.5441   96.2641   -2.6254 C.ar    1  UNL1        0.2073
     22 N          59.4678   95.3848   -2.0610 N.ar    1  UNL1       -0.2398
     23 C          58.2940   95.4322   -2.9936 C.ar    1  UNL1        0.3522
     24 O          56.9971   94.6996   -2.8166 O.2     1  UNL1       -0.2444
     25 C          57.7601   96.6765   -5.2984 C.3     1  UNL1        0.1099
     26 C          56.2850   96.8545   -5.0925 C.3     1  UNL1        0.0265
     27 C          59.2679   95.7811   -7.2153 C.3     1  UNL1        0.0021
     28 C          58.3506   96.8341   -6.6682 C.3     1  UNL1        0.0245
     29 O          60.2985   87.5010   10.6731 O.3     1  UNL1       -0.4712
     30 C          60.2368   88.2048   11.9962 C.3     1  UNL1        0.2374
     31 C          61.3415   89.1342   12.4036 C.3     1  UNL1        0.1909
     32 C          61.3502   90.6239   12.2279 C.3     1  UNL1        0.1783
     33 O          62.6455   91.1475   12.7738 O.3     1  UNL1       -0.3266
     34 C          63.4373   89.9814   13.2870 C.3     1  UNL1        0.2315
     35 O          62.6314   88.7372   13.0581 O.3     1  UNL1       -0.3254
     36 C          64.4532   91.0276   13.6385 C.ar    1  UNL1        0.0410
     37 C          64.8933   91.1972   15.0624 C.ar    1  UNL1        0.0022
     38 C          65.9091   92.2435   15.4139 C.ar    1  UNL1        0.0113
     39 C          66.4848   93.1200   14.3415 C.ar    1  UNL1        0.0585
     40 CL         67.5006   94.1663   14.6930 Cl      1  UNL1       -0.0822
     41 C          66.0447   92.9505   12.9176 C.ar    1  UNL1        0.0226
     42 C          65.0289   91.9043   12.5660 C.ar    1  UNL1        0.0591
     43 CL         64.5888   91.7347   11.1421 Cl      1  UNL1       -0.0824
     44 C          64.4416   89.0341   13.8736 C.3     1  UNL1        0.1915
     45 N          63.9998   87.9792   14.8442 N.ar    1  UNL1       -0.2054
     46 C          64.2076   86.5013   14.6951 C.ar    1  UNL1        0.2216
     47 N          63.6089   85.8257   15.8931 N.ar    1  UNL1       -0.1048
     48 N          63.0309   86.8863   16.7826 N.ar    1  UNL1       -0.0226
     49 N          63.2725   88.2172   16.1344 N.ar    1  UNL1       -0.0427
@<TRIPOS>BOND
     1    27    28    1
     2    28    25    1
     3    25    26    1
     4    25    19    1
     5    19    20   ar
     6    20    21   ar
     7    21    22   ar
     8    22    13    1
     9    13    14   ar
    10    14    15   ar
    11    15    16   ar
    12    16     7    1
    13     7     8    1
    14     8     9    1
    15     9    10    1
    16    10     1    1
    17     1     2   ar
    18     2     3   ar
    19     3     4   ar
    20     4    29    1
    21    29    30    1
    22    31    30    1
    23    31    32    1
    24    32    33    1
    25    33    34    1
    26    34    44    1
    27    44    45    1
    28    45    46   ar
    29    46    47   ar
    30    47    48   ar
    31    48    49   ar
    32    34    36    1
    33    36    37   ar
    34    37    38   ar
    35    38    39   ar
    36    39    40    1
    37    39    41   ar
    38    41    42   ar
    39    42    43    1
    40    34    35    1
    41     4     5   ar
    42     5     6   ar
    43    10    11    1
    44    11    12    1
    45    16    17   ar
    46    17    18   ar
    47    22    23   ar
    48    23    24    2
    49    23    19   ar
    50    18    13   ar
    51    12     7    1
    52     6     1   ar
    53    35    31    1
    54    49    45   ar
    55    42    36   ar
@<TRIPOS>MOLECULE
*****
 49 55 0 0 0
SMALL
GASTEIGER

@<TRIPOS>ATOM
      1 C          60.4928   90.4616    6.7828 C.ar    1  UNL1        0.1320
      2 C          59.5947   89.3335    7.1961 C.ar    1  UNL1        0.0374
      3 C          59.7444   88.7147    8.5543 C.ar    1  UNL1        0.0414
      4 C          60.7922   89.2240    9.4992 C.ar    1  UNL1        0.1579
      5 C          61.6903   90.3521    9.0858 C.ar    1  UNL1        0.1370
      6 N          61.5405   90.9709    7.7276 N.ar    1  UNL1       -0.2260
      7 N          60.0436   92.3180    2.7082 N.pl3   1  UNL1       -0.3041
      8 C          58.8458   92.1620    3.5975 C.3     1  UNL1        0.1123
      9 C          58.9955   91.5432    4.9557 C.3     1  UNL1        0.1136
     10 N          60.3430   91.0804    5.4246 N.pl3   1  UNL1       -0.2897
     11 C          61.5409   91.2364    4.5353 C.3     1  UNL1        0.1136
     12 C          61.3912   91.8552    3.1771 C.3     1  UNL1        0.1123
     13 C          59.5946   94.1743   -1.3664 C.ar    1  UNL1        0.0699
     14 C          59.8965   92.7106   -1.2382 C.ar    1  UNL1        0.0190
     15 C          60.0462   92.0919    0.1200 C.ar    1  UNL1        0.0160
     16 C          59.8939   92.9368    1.3500 C.ar    1  UNL1        0.0480
     17 C          59.5920   94.4005    1.2218 C.ar    1  UNL1        0.0160
     18 C          59.4423   95.0192   -0.1364 C.ar    1  UNL1        0.0190
     19 N          58.5688   95.3764   -4.9116 N.ar    1  UNL1       -0.2024
     20 N          59.8604   96.1142   -4.7178 N.ar    1  UNL1       -0.1442
     21 C          60.4018   95.7537   -3.3662 C.ar    1  UNL1        0.2073
     22 N          59.4449   94.7931   -2.7246 N.ar    1  UNL1       -0.2398
     23 C          58.3120   94.5600   -3.6797 C.ar    1  UNL1        0.3522
     24 O          57.1299   93.6671   -3.4444 O.2     1  UNL1       -0.2444
     25 C          57.6886   95.4434   -6.1243 C.3     1  UNL1        0.1099
     26 C          56.5321   96.3980   -6.1598 C.3     1  UNL1        0.0265
     27 C          57.8501   93.0669   -7.1615 C.3     1  UNL1        0.0021
     28 C          57.9648   94.5558   -7.3015 C.3     1  UNL1        0.0245
     29 O          60.9419   88.6052   10.8573 O.3     1  UNL1       -0.4712
     30 C          62.2359   87.9538   11.2461 C.3     1  UNL1        0.2374
     31 C          62.2724   86.4878   11.5622 C.3     1  UNL1        0.1909
     32 C          61.6262   85.3968   10.7608 C.3     1  UNL1        0.1783
     33 O          61.9159   84.0903   11.4384 O.3     1  UNL1       -0.3266
     34 C          62.7410   84.3739   12.6586 C.3     1  UNL1        0.2315
     35 O          62.9613   85.8556   12.7350 O.3     1  UNL1       -0.3254
     36 C          62.6910   82.8864   12.8453 C.ar    1  UNL1        0.0410
     37 C          61.8862   82.2979   13.9660 C.ar    1  UNL1        0.0022
     38 C          61.8362   80.8103   14.1528 C.ar    1  UNL1        0.0113
     39 C          62.5909   79.9114   13.2189 C.ar    1  UNL1        0.0585
     40 CL         62.5409   78.4239   13.4056 Cl      1  UNL1       -0.0822
     41 C          63.3957   80.4999   12.0981 C.ar    1  UNL1        0.0226
     42 C          63.4457   81.9874   11.9113 C.ar    1  UNL1        0.0591
     43 CL         64.2505   82.5760   10.7906 Cl      1  UNL1       -0.0824
     44 C          63.5557   84.3465   13.9178 C.3     1  UNL1        0.1915
     45 N          63.1506   85.1879   15.0916 N.ar    1  UNL1       -0.2054
     46 C          63.9099   86.3592   15.6407 C.ar    1  UNL1        0.2216
     47 N          63.1437   86.9010   16.8108 N.ar    1  UNL1       -0.1048
     48 N          61.9108   86.0645   16.9850 N.ar    1  UNL1       -0.0226
     49 N          61.9151   85.0058   15.9224 N.ar    1  UNL1       -0.0427
@<TRIPOS>BOND
     1    27    28    1
     2    28    25    1
     3    25    26    1
     4    25    19    1
     5    19    20   ar
     6    20    21   ar
     7    21    22   ar
     8    22    13    1
     9    13    14   ar
    10    14    15   ar
    11    15    16   ar
    12    16     7    1
    13     7     8    1
    14     8     9    1
    15     9    10    1
    16    10     1    1
    17     1     2   ar
    18     2     3   ar
    19     3     4   ar
    20     4    29    1
    21    29    30    1
    22    31    30    1
    23    31    32    1
    24    32    33    1
    25    33    34    1
    26    34    44    1
    27    44    45    1
    28    45    46   ar
    29    46    47   ar
    30    47    48   ar
    31    48    49   ar
    32    34    36    1
    33    36    37   ar
    34    37    38   ar
    35    38    39   ar
    36    39    40    1
    37    39    41   ar
    38    41    42   ar
    39    42    43    1
    40    34    35    1
    41     4     5   ar
    42     5     6   ar
    43    10    11    1
    44    11    12    1
    45    16    17   ar
    46    17    18   ar
    47    22    23   ar
    48    23    24    2
    49    23    19   ar
    50    18    13   ar
    51    12     7    1
    52     6     1   ar
    53    35    31    1
    54    49    45   ar
    55    42    36   ar
@<TRIPOS>MOLECULE
*****
 49 55 0 0 0
SMALL
GASTEIGER

@<TRIPOS>ATOM
      1 C          60.1307   90.1563    6.8329 C.ar    1  UNL1        0.1320
      2 C          59.3188   88.9172    7.0681 C.ar    1  UNL1        0.0374
      3 C          59.4134   88.1964    8.3802 C.ar    1  UNL1        0.0414
      4 C          60.3198   88.7148    9.4571 C.ar    1  UNL1        0.1579
      5 C          61.1317   89.9540    9.2219 C.ar    1  UNL1        0.1370
      6 N          61.0372   90.6747    7.9098 N.ar    1  UNL1       -0.2260
      7 N          59.8471   92.3186    2.8967 N.pl3   1  UNL1       -0.3041
      8 C          58.6253   92.1522    3.7507 C.3     1  UNL1        0.1123
      9 C          58.7198   91.4314    5.0628 C.3     1  UNL1        0.1136
     10 N          60.0362   90.8771    5.5209 N.pl3   1  UNL1       -0.2897
     11 C          61.2580   91.0435    4.6668 C.3     1  UNL1        0.1136
     12 C          61.1635   91.7643    3.3547 C.3     1  UNL1        0.1123
     13 C          59.5636   94.4808   -1.0396 C.ar    1  UNL1        0.0699
     14 C          59.4275   92.9878   -0.9926 C.ar    1  UNL1        0.0190
     15 C          59.5220   92.2671    0.3195 C.ar    1  UNL1        0.0160
     16 C          59.7526   93.0394    1.5846 C.ar    1  UNL1        0.0480
     17 C          59.8887   94.5325    1.5375 C.ar    1  UNL1        0.0160
     18 C          59.7941   95.2532    0.2255 C.ar    1  UNL1        0.0190
     19 N          59.8693   95.8775   -4.6481 N.ar    1  UNL1       -0.2024
     20 N          58.7779   96.7442   -4.0934 N.ar    1  UNL1       -0.1442
     21 C          58.5305   96.3265   -2.6742 C.ar    1  UNL1        0.2073
     22 N          59.4691   95.2016   -2.3517 N.ar    1  UNL1       -0.2398
     23 C          60.2965   94.9241   -3.5717 C.ar    1  UNL1        0.3522
     24 O          61.3636   93.8772   -3.6939 O.2     1  UNL1       -0.2444
     25 C          60.4344   95.9512   -6.0357 C.3     1  UNL1        0.1099
     26 C          59.5207   95.8728   -7.2227 C.3     1  UNL1        0.0265
     27 C          62.7041   94.9906   -6.8575 C.3     1  UNL1        0.0021
     28 C          61.9131   96.1033   -6.2363 C.3     1  UNL1        0.0245
     29 O          60.4143   87.9940   10.7691 O.3     1  UNL1       -0.4712
     30 C          60.3085   88.7596   12.0547 C.3     1  UNL1        0.2374
     31 C          61.4774   89.5582   12.5505 C.3     1  UNL1        0.1909
     32 C          62.1616   90.6707   11.8127 C.3     1  UNL1        0.1783
     33 O          63.2744   91.1847   12.6772 O.3     1  UNL1       -0.3266
     34 C          63.2780   90.3899   13.9494 C.3     1  UNL1        0.2315
     35 O          62.1674   89.3847   13.8710 O.3     1  UNL1       -0.3254
     36 C          64.4401   91.2673   14.3094 C.ar    1  UNL1        0.0410
     37 C          64.7167   91.5930   15.7472 C.ar    1  UNL1        0.0022
     38 C          65.8789   92.4705   16.1073 C.ar    1  UNL1        0.0113
     39 C          66.7644   93.0220   15.0296 C.ar    1  UNL1        0.0585
     40 CL         67.9265   93.8994   15.3896 Cl      1  UNL1       -0.0822
     41 C          66.4878   92.6963   13.5917 C.ar    1  UNL1        0.0226
     42 C          65.3256   91.8189   13.2316 C.ar    1  UNL1        0.0591
     43 CL         65.0490   91.4931   11.7938 Cl      1  UNL1       -0.0824
     44 C          63.5245   89.7785   15.2967 C.3     1  UNL1        0.1915
     45 N          63.6829   88.2927   15.4286 N.ar    1  UNL1       -0.2054
     46 C          64.4943   87.4092   14.5281 C.ar    1  UNL1        0.2216
     47 N          64.3705   86.0001   15.0270 N.ar    1  UNL1       -0.1048
     48 N          63.4826   86.0127   16.2359 N.ar    1  UNL1       -0.0226
     49 N          63.0576   87.4296   16.4841 N.ar    1  UNL1       -0.0427
@<TRIPOS>BOND
     1    27    28    1
     2    28    25    1
     3    25    26    1
     4    25    19    1
     5    19    20   ar
     6    20    21   ar
     7    21    22   ar
     8    22    13    1
     9    13    14   ar
    10    14    15   ar
    11    15    16   ar
    12    16     7    1
    13     7     8    1
    14     8     9    1
    15     9    10    1
    16    10     1    1
    17     1     2   ar
    18     2     3   ar
    19     3     4   ar
    20     4    29    1
    21    29    30    1
    22    31    30    1
    23    31    32    1
    24    32    33    1
    25    33    34    1
    26    34    44    1
    27    44    45    1
    28    45    46   ar
    29    46    47   ar
    30    47    48   ar
    31    48    49   ar
    32    34    36    1
    33    36    37   ar
    34    37    38   ar
    35    38    39   ar
    36    39    40    1
    37    39    41   ar
    38    41    42   ar
    39    42    43    1
    40    34    35    1
    41     4     5   ar
    42     5     6   ar
    43    10    11    1
    44    11    12    1
    45    16    17   ar
    46    17    18   ar
    47    22    23   ar
    48    23    24    2
    49    23    19   ar
    50    18    13   ar
    51    12     7    1
    52     6     1   ar
    53    35    31    1
    54    49    45   ar
    55    42    36   ar
@<TRIPOS>MOLECULE
*****
 49 55 0 0 0
SMALL
GASTEIGER

@<TRIPOS>ATOM
      1 C          60.1289   89.5661    7.6105 C.ar    1  UNL1        0.1320
      2 C          60.3167   90.2576    8.9282 C.ar    1  UNL1        0.0374
      3 C          60.4617   89.4510   10.1846 C.ar    1  UNL1        0.0414
      4 C          60.4189   87.9529   10.1232 C.ar    1  UNL1        0.1579
      5 C          60.2310   87.2614    8.8054 C.ar    1  UNL1        0.1370
      6 N          60.0860   88.0680    7.5491 N.ar    1  UNL1       -0.2260
      7 N          59.6939   91.9859    3.8415 N.pl3   1  UNL1       -0.3041
      8 C          58.4846   91.6581    4.6661 C.3     1  UNL1        0.1123
      9 C          58.6295   90.8515    5.9225 C.3     1  UNL1        0.1136
     10 N          59.9839   90.3727    6.3542 N.pl3   1  UNL1       -0.2897
     11 C          61.1933   90.7004    5.5295 C.3     1  UNL1        0.1136
     12 C          61.0483   91.5070    4.2732 C.3     1  UNL1        0.1123
     13 C          59.2590   94.4056    0.0724 C.ar    1  UNL1        0.0699
     14 C          58.6525   93.0364    0.1588 C.ar    1  UNL1        0.0190
     15 C          58.7975   92.2299    1.4152 C.ar    1  UNL1        0.0160
     16 C          59.5490   92.7925    2.5851 C.ar    1  UNL1        0.0480
     17 C          60.1555   94.1617    2.4987 C.ar    1  UNL1        0.0160
     18 C          60.0105   94.9682    1.2424 C.ar    1  UNL1        0.0190
     19 N          59.4362   96.0510   -3.4385 N.ar    1  UNL1       -0.2024
     20 N          58.3457   96.8560   -2.7959 N.ar    1  UNL1       -0.1442
     21 C          58.1466   96.3375   -1.4025 C.ar    1  UNL1        0.2073
     22 N          59.1141   95.2122   -1.1840 N.ar    1  UNL1       -0.2398
     23 C          59.9110   95.0351   -2.4423 C.ar    1  UNL1        0.3522
     24 O          60.9929   94.0203   -2.6653 O.2     1  UNL1       -0.2444
     25 C          59.9599   96.2304   -4.8327 C.3     1  UNL1        0.1099
     26 C          61.3606   96.7209   -5.0504 C.3     1  UNL1        0.0265
     27 C          58.9089   94.4995   -6.4603 C.3     1  UNL1        0.0021
     28 C          59.0829   95.9193   -6.0091 C.3     1  UNL1        0.0245
     29 O          60.5639   87.1463   11.3795 O.3     1  UNL1       -0.4712
     30 C          61.9236   86.7078   11.8364 C.3     1  UNL1        0.2374
     31 C          62.8170   87.6693   12.5627 C.3     1  UNL1        0.1909
     32 C          63.9131   87.3037   13.5193 C.3     1  UNL1        0.1783
     33 O          64.5447   88.5735   14.0077 O.3     1  UNL1       -0.3266
     34 C          63.8390   89.7239   13.3530 C.3     1  UNL1        0.2315
     35 O          62.7712   89.1650   12.4600 O.3     1  UNL1       -0.3254
     36 C          64.8013   90.5598   14.1438 C.ar    1  UNL1        0.0410
     37 C          66.1662   90.8531   13.5953 C.ar    1  UNL1        0.0022
     38 C          67.1286   91.6890   14.3860 C.ar    1  UNL1        0.0113
     39 C          66.7260   92.2315   15.7252 C.ar    1  UNL1        0.0585
     40 CL         67.6883   93.0674   16.5159 Cl      1  UNL1       -0.0822
     41 C          65.3610   91.9382   16.2737 C.ar    1  UNL1        0.0226
     42 C          64.3986   91.1023   15.4830 C.ar    1  UNL1        0.0591
     43 CL         63.0337   90.8090   16.0315 Cl      1  UNL1       -0.0824
     44 C          63.3344   91.0490   12.8637 C.3     1  UNL1        0.1915
     45 N          64.2167   91.9235   12.0229 N.ar    1  UNL1       -0.2054
     46 C          64.4791   91.7599   10.5552 C.ar    1  UNL1        0.2216
     47 N          65.4160   92.8503   10.1274 N.ar    1  UNL1       -0.1048
     48 N          65.7327   93.6879   11.3307 N.ar    1  UNL1       -0.0226
     49 N          64.9914   93.1151   12.5023 N.ar    1  UNL1       -0.0427
@<TRIPOS>BOND
     1    27    28    1
     2    28    25    1
     3    25    26    1
     4    25    19    1
     5    19    20   ar
     6    20    21   ar
     7    21    22   ar
     8    22    13    1
     9    13    14   ar
    10    14    15   ar
    11    15    16   ar
    12    16     7    1
    13     7     8    1
    14     8     9    1
    15     9    10    1
    16    10     1    1
    17     1     2   ar
    18     2     3   ar
    19     3     4   ar
    20     4    29    1
    21    29    30    1
    22    31    30    1
    23    31    32    1
    24    32    33    1
    25    33    34    1
    26    34    44    1
    27    44    45    1
    28    45    46   ar
    29    46    47   ar
    30    47    48   ar
    31    48    49   ar
    32    34    36    1
    33    36    37   ar
    34    37    38   ar
    35    38    39   ar
    36    39    40    1
    37    39    41   ar
    38    41    42   ar
    39    42    43    1
    40    34    35    1
    41     4     5   ar
    42     5     6   ar
    43    10    11    1
    44    11    12    1
    45    16    17   ar
    46    17    18   ar
    47    22    23   ar
    48    23    24    2
    49    23    19   ar
    50    18    13   ar
    51    12     7    1
    52     6     1   ar
    53    35    31    1
    54    49    45   ar
    55    42    36   ar
@<TRIPOS>MOLECULE
*****
 49 55 0 0 0
SMALL
GASTEIGER

@<TRIPOS>ATOM
      1 C          59.8247   89.7447    7.3110 C.ar    1  UNL1        0.1320
      2 C          59.9723   88.2521    7.2963 C.ar    1  UNL1        0.0374
      3 C          60.0578   87.4941    8.5880 C.ar    1  UNL1        0.0414
      4 C          59.9958   88.2288    9.8942 C.ar    1  UNL1        0.1579
      5 C          59.8483   89.7215    9.9089 C.ar    1  UNL1        0.1370
      6 N          59.7627   90.4794    8.6173 N.ar    1  UNL1       -0.2260
      7 N          59.5682   92.0184    3.4362 N.pl3   1  UNL1       -0.3041
      8 C          58.3304   91.7797    4.2490 C.3     1  UNL1        0.1123
      9 C          58.4158   91.0217    5.5407 C.3     1  UNL1        0.1136
     10 N          59.7392   90.5026    6.0194 N.pl3   1  UNL1       -0.2897
     11 C          60.9771   90.7414    5.2065 C.3     1  UNL1        0.1136
     12 C          60.8915   91.4993    3.9149 C.3     1  UNL1        0.1123
     13 C          59.3117   94.2921   -0.4387 C.ar    1  UNL1        0.0699
     14 C          58.3687   93.1565   -0.1716 C.ar    1  UNL1        0.0190
     15 C          58.4542   92.3987    1.1200 C.ar    1  UNL1        0.0160
     16 C          59.4827   92.7763    2.1445 C.ar    1  UNL1        0.0480
     17 C          60.4256   93.9119    1.8774 C.ar    1  UNL1        0.0160
     18 C          60.3401   94.6697    0.5858 C.ar    1  UNL1        0.0190
     19 N          58.9543   95.5769   -4.0839 N.ar    1  UNL1       -0.2024
     20 N          59.2349   96.8558   -3.3520 N.ar    1  UNL1       -0.1442
     21 C          59.4029   96.5302   -1.8974 C.ar    1  UNL1        0.2073
     22 N          59.2262   95.0500   -1.7303 N.ar    1  UNL1       -0.2398
     23 C          58.9489   94.4608   -3.0816 C.ar    1  UNL1        0.3522
     24 O          58.7085   93.0103   -3.3786 O.2     1  UNL1       -0.2444
     25 C          58.7203   95.4383   -5.5590 C.3     1  UNL1        0.1099
     26 C          59.8863   95.3448   -6.4979 C.3     1  UNL1        0.0265
     27 C          56.4315   94.2281   -5.7753 C.3     1  UNL1        0.0021
     28 C          57.3201   95.3933   -6.0953 C.3     1  UNL1        0.0245
     29 O          60.0813   87.4709   11.1858 O.3     1  UNL1       -0.4712
     30 C          61.1330   87.8252   12.1950 C.3     1  UNL1        0.2374
     31 C          62.1244   88.9104   11.8957 C.3     1  UNL1        0.1909
     32 C          62.7282   89.2078   10.5552 C.3     1  UNL1        0.1783
     33 O          63.6630   90.3699   10.7153 O.3     1  UNL1       -0.3266
     34 C          63.6370   90.7907   12.1549 C.3     1  UNL1        0.2315
     35 O          62.6861   89.8887   12.8844 O.3     1  UNL1       -0.3254
     36 C          64.6256   91.8259   11.7067 C.ar    1  UNL1        0.0410
     37 C          64.3457   92.6515   10.4861 C.ar    1  UNL1        0.0022
     38 C          65.3343   93.6868   10.0379 C.ar    1  UNL1        0.0113
     39 C          66.6029   93.8964   10.8103 C.ar    1  UNL1        0.0585
     40 CL         67.5916   94.9316   10.3621 Cl      1  UNL1       -0.0822
     41 C          66.8830   93.0708   12.0309 C.ar    1  UNL1        0.0226
     42 C          65.8943   92.0355   12.4792 C.ar    1  UNL1        0.0591
     43 CL         66.1743   91.2099   13.6998 Cl      1  UNL1       -0.0824
     44 C          63.8177   91.4279   13.5007 C.3     1  UNL1        0.1915
     45 N          63.6222   90.6165   14.7471 N.ar    1  UNL1       -0.2054
     46 C          63.6750   89.1205   14.8426 C.ar    1  UNL1        0.2216
     47 N          63.4249   88.7381   16.2713 N.ar    1  UNL1       -0.1048
     48 N          63.2176   89.9978   17.0588 N.ar    1  UNL1       -0.0226
     49 N          63.3395   91.1587   16.1168 N.ar    1  UNL1       -0.0427
@<TRIPOS>BOND
     1    27    28    1
     2    28    25    1
     3    25    26    1
     4    25    19    1
     5    19    20   ar
     6    20    21   ar
     7    21    22   ar
     8    22    13    1
     9    13    14   ar
    10    14    15   ar
    11    15    16   ar
    12    16     7    1
    13     7     8    1
    14     8     9    1
    15     9    10    1
    16    10     1    1
    17     1     2   ar
    18     2     3   ar
    19     3     4   ar
    20     4    29    1
    21    29    30    1
    22    31    30    1
    23    31    32    1
    24    32    33    1
    25    33    34    1
    26    34    44    1
    27    44    45    1
    28    45    46   ar
    29    46    47   ar
    30    47    48   ar
    31    48    49   ar
    32    34    36    1
    33    36    37   ar
    34    37    38   ar
    35    38    39   ar
    36    39    40    1
    37    39    41   ar
    38    41    42   ar
    39    42    43    1
    40    34    35    1
    41     4     5   ar
    42     5     6   ar
    43    10    11    1
    44    11    12    1
    45    16    17   ar
    46    17    18   ar
    47    22    23   ar
    48    23    24    2
    49    23    19   ar
    50    18    13   ar
    51    12     7    1
    52     6     1   ar
    53    35    31    1
    54    49    45   ar
    55    42    36   ar
