@<TRIPOS>MOLECULE
*****
 32 34 0 0 0
SMALL
GASTEIGER

@<TRIPOS>ATOM
      1 C          63.7628   89.4588   14.8503 C.ar    1  UNL1        0.0283
      2 C          64.2234   88.1575   14.2633 C.ar    1  UNL1        0.0365
      3 C          64.1482   86.8995   15.0767 C.ar    1  UNL1        0.1390
      4 C          63.6125   86.9427   16.4771 C.ar    1  UNL1        0.0392
      5 C          63.1519   88.2439   17.0640 C.ar    1  UNL1        0.0325
      6 C          63.2270   89.5020   16.2506 C.ar    1  UNL1        0.1379
      7 F          62.7664   90.8033   16.8376 F       1  UNL1       -0.2044
      8 C          63.8379   90.7168   14.0368 C.3     1  UNL1        0.1261
      9 C          65.4261   91.8926   12.3500 C.2     1  UNL1        0.4055
     10 O          64.3468   91.8566   11.3088 O.2     1  UNL1       -0.2262
     11 N          65.1716   91.3227   13.7140 N.am    1  UNL1       -0.2365
     12 C          67.2023   92.6202   10.5990 C.3     1  UNL1        0.2573
     13 O          66.7597   92.4984   12.0271 O.3     1  UNL1       -0.4304
     14 C          66.2508   91.3586   14.7551 C.3     1  UNL1        0.1388
     15 C          66.2824   92.4677   15.7646 C.2     1  UNL1        0.0706
     16 O          67.4904   93.3505   15.8715 O.co2   1  UNL1       -0.5474
     17 O          65.1059   92.6940   16.6673 O.co2   1  UNL1       -0.5474
     18 O          64.6089   85.5982   14.4897 O.3     1  UNL1       -0.4689
     19 C          63.6135   84.6570   13.8786 C.3     1  UNL1        0.2537
     20 C          63.1584   84.8613   12.4641 C.ar    1  UNL1        0.1359
     21 N          62.2995   85.9866   11.9681 N.ar    1  UNL1       -0.2093
     22 C          62.0926   85.7970   10.4946 C.ar    1  UNL1        0.2290
     23 O          62.8236   84.5546   10.0798 O.2     1  UNL1       -0.4391
     24 C          63.4824   83.9763   11.2971 C.ar    1  UNL1        0.1421
     25 C          64.3183   82.7316   11.3398 C.3     1  UNL1        0.0740
     26 C          61.2946   86.6927    9.5939 C.ar    1  UNL1        0.0536
     27 C          60.4893   86.1045    8.4734 C.ar    1  UNL1        0.0055
     28 C          59.6913   87.0001    7.5727 C.ar    1  UNL1        0.0115
     29 C          59.6988   88.4839    7.7925 C.ar    1  UNL1        0.0577
     30 CL         58.9009   89.3796    6.8918 Cl      1  UNL1       -0.0822
     31 C          60.5042   89.0721    8.9130 C.ar    1  UNL1        0.0115
     32 C          61.3021   88.1764    9.8137 C.ar    1  UNL1        0.0055
@<TRIPOS>UNITY_ATOM_ATTR
16 1
charge -1
@<TRIPOS>BOND
     1    12    13    1
     2    13     9    1
     3     9    10    2
     4     9    11   am
     5    11    14    1
     6    14    15    1
     7    15    16   ar
     8    15    17   ar
     9    11     8    1
    10     8     1    1
    11     1     2   ar
    12     2     3   ar
    13     3    18    1
    14    18    19    1
    15    19    20    1
    16    20    21   ar
    17    21    22   ar
    18    22    26    1
    19    26    27   ar
    20    27    28   ar
    21    28    29   ar
    22    29    30    1
    23    29    31   ar
    24    31    32   ar
    25    22    23   ar
    26    23    24   ar
    27    24    25    1
    28     3     4   ar
    29     4     5   ar
    30     5     6   ar
    31     6     7    1
    32     6     1   ar
    33    24    20   ar
    34    32    26   ar
@<TRIPOS>MOLECULE
*****
 32 34 0 0 0
SMALL
GASTEIGER

@<TRIPOS>ATOM
      1 C          63.3402   90.1764   11.3372 C.ar    1  UNL1        0.0283
      2 C          63.2101   89.1887   12.4585 C.ar    1  UNL1        0.0365
      3 C          63.8045   89.4957   13.8011 C.ar    1  UNL1        0.1390
      4 C          64.5289   90.7904   14.0224 C.ar    1  UNL1        0.0392
      5 C          64.6589   91.7781   12.9010 C.ar    1  UNL1        0.0325
      6 C          64.0646   91.4711   11.5584 C.ar    1  UNL1        0.1379
      7 F          64.1948   92.4589   10.4371 F       1  UNL1       -0.2044
      8 C          62.7459   89.8694    9.9946 C.3     1  UNL1        0.1261
      9 C          61.1727   87.8304    9.6521 C.2     1  UNL1        0.4055
     10 O          62.3665   86.9350    9.4992 O.2     1  UNL1       -0.2262
     11 N          61.3625   89.2976    9.8998 N.am    1  UNL1       -0.2365
     12 C          59.2296   86.8666    8.2219 C.3     1  UNL1        0.2573
     13 O          59.7893   87.2585    9.5573 O.3     1  UNL1       -0.4304
     14 C          60.1687   90.1929   10.0527 C.3     1  UNL1        0.1388
     15 C          59.5451   90.3873   11.4031 C.2     1  UNL1        0.0706
     16 O          59.8007   89.3937   12.4973 O.co2   1  UNL1       -0.5474
     17 O          58.6660   91.5754   11.6591 O.co2   1  UNL1       -0.5474
     18 O          63.6743   88.5079   14.9225 O.3     1  UNL1       -0.4689
     19 C          64.5485   87.2894   14.9538 C.3     1  UNL1        0.2537
     20 C          63.9474   85.9298   14.7539 C.ar    1  UNL1        0.1359
     21 N          64.0972   85.0703   13.5338 N.ar    1  UNL1       -0.2093
     22 C          63.3334   83.8002   13.7648 C.ar    1  UNL1        0.2290
     23 O          62.7115   83.8747   15.1279 O.2     1  UNL1       -0.4391
     24 C          63.0910   85.1908   15.7391 C.ar    1  UNL1        0.1421
     25 C          62.6853   85.6819   17.0972 C.3     1  UNL1        0.0740
     26 C          63.2126   82.6564   12.8019 C.ar    1  UNL1        0.0536
     27 C          62.6256   81.3527   13.2558 C.ar    1  UNL1        0.0055
     28 C          62.5048   80.2089   12.2929 C.ar    1  UNL1        0.0115
     29 C          62.9710   80.3688   10.8761 C.ar    1  UNL1        0.0577
     30 CL         62.8502   79.2250    9.9133 Cl      1  UNL1       -0.0822
     31 C          63.5580   81.6724   10.4223 C.ar    1  UNL1        0.0115
     32 C          63.6787   82.8162   11.3852 C.ar    1  UNL1        0.0055
@<TRIPOS>UNITY_ATOM_ATTR
16 1
charge -1
@<TRIPOS>BOND
     1    12    13    1
     2    13     9    1
     3     9    10    2
     4     9    11   am
     5    11    14    1
     6    14    15    1
     7    15    16   ar
     8    15    17   ar
     9    11     8    1
    10     8     1    1
    11     1     2   ar
    12     2     3   ar
    13     3    18    1
    14    18    19    1
    15    19    20    1
    16    20    21   ar
    17    21    22   ar
    18    22    26    1
    19    26    27   ar
    20    27    28   ar
    21    28    29   ar
    22    29    30    1
    23    29    31   ar
    24    31    32   ar
    25    22    23   ar
    26    23    24   ar
    27    24    25    1
    28     3     4   ar
    29     4     5   ar
    30     5     6   ar
    31     6     7    1
    32     6     1   ar
    33    24    20   ar
    34    32    26   ar
@<TRIPOS>MOLECULE
*****
 32 34 0 0 0
SMALL
GASTEIGER

@<TRIPOS>ATOM
      1 C          65.6303   92.0918   13.0301 C.ar    1  UNL1        0.0283
      2 C          64.3736   91.8618   12.2443 C.ar    1  UNL1        0.0365
      3 C          63.4257   90.7715   12.6479 C.ar    1  UNL1        0.1390
      4 C          63.7345   89.9114   13.8373 C.ar    1  UNL1        0.0392
      5 C          64.9913   90.1414   14.6231 C.ar    1  UNL1        0.0325
      6 C          65.9392   91.2316   14.2195 C.ar    1  UNL1        0.1379
      7 F          67.1961   91.4617   15.0053 F       1  UNL1       -0.2044
      8 C          66.5782   93.1821   12.6265 C.3     1  UNL1        0.1261
      9 C          66.2219   95.2433   11.0856 C.2     1  UNL1        0.4055
     10 O          66.0322   96.1130   12.2930 O.2     1  UNL1       -0.2262
     11 N          66.4949   93.7778   11.2525 N.am    1  UNL1       -0.2365
     12 C          67.2164   96.7636    9.2283 C.3     1  UNL1        0.2573
     13 O          66.1385   95.8390    9.7116 O.3     1  UNL1       -0.4304
     14 C          66.6845   92.9080   10.0452 C.3     1  UNL1        0.1388
     15 C          68.0411   92.7816    9.4175 C.2     1  UNL1        0.0706
     16 O          69.0827   93.8323    9.6646 O.co2   1  UNL1       -0.5474
     17 O          68.3559   91.6045    8.5427 O.co2   1  UNL1       -0.5474
     18 O          62.1688   90.5415   11.8620 O.3     1  UNL1       -0.4689
     19 C          62.2150   89.7514   10.5878 C.3     1  UNL1        0.2537
     20 C          61.9735   88.2713   10.6139 C.ar    1  UNL1        0.1359
     21 N          62.6717   87.2795   11.4964 N.ar    1  UNL1       -0.2093
     22 C          62.1211   85.9182   11.1901 C.ar    1  UNL1        0.2290
     23 O          61.0826   86.0687   10.1182 O.2     1  UNL1       -0.4391
     24 C          60.9914   87.5230    9.7621 C.ar    1  UNL1        0.1421
     25 C          60.0784   88.1235    8.7346 C.3     1  UNL1        0.0740
     26 C          62.5362   84.6322   11.8412 C.ar    1  UNL1        0.0536
     27 C          63.0456   83.4974   11.0031 C.ar    1  UNL1        0.0055
     28 C          63.4607   82.2114   11.6542 C.ar    1  UNL1        0.0115
     29 C          63.3662   82.0603   13.1436 C.ar    1  UNL1        0.0577
     30 CL         63.7812   80.7743   13.7948 Cl      1  UNL1       -0.0822
     31 C          62.8568   83.1951   13.9818 C.ar    1  UNL1        0.0115
     32 C          62.4418   84.4811   13.3306 C.ar    1  UNL1        0.0055
@<TRIPOS>UNITY_ATOM_ATTR
16 1
charge -1
@<TRIPOS>BOND
     1    12    13    1
     2    13     9    1
     3     9    10    2
     4     9    11   am
     5    11    14    1
     6    14    15    1
     7    15    16   ar
     8    15    17   ar
     9    11     8    1
    10     8     1    1
    11     1     2   ar
    12     2     3   ar
    13     3    18    1
    14    18    19    1
    15    19    20    1
    16    20    21   ar
    17    21    22   ar
    18    22    26    1
    19    26    27   ar
    20    27    28   ar
    21    28    29   ar
    22    29    30    1
    23    29    31   ar
    24    31    32   ar
    25    22    23   ar
    26    23    24   ar
    27    24    25    1
    28     3     4   ar
    29     4     5   ar
    30     5     6   ar
    31     6     7    1
    32     6     1   ar
    33    24    20   ar
    34    32    26   ar
@<TRIPOS>MOLECULE
*****
 32 34 0 0 0
SMALL
GASTEIGER

@<TRIPOS>ATOM
      1 C          63.2546   84.2649   11.5876 C.ar    1  UNL1        0.0283
      2 C          62.1448   85.2723   11.6463 C.ar    1  UNL1        0.0365
      3 C          61.6256   85.8908   10.3822 C.ar    1  UNL1        0.1390
      4 C          62.2160   85.5017    9.0594 C.ar    1  UNL1        0.0392
      5 C          63.3257   84.4942    9.0006 C.ar    1  UNL1        0.0325
      6 C          63.8450   83.8758   10.2647 C.ar    1  UNL1        0.1379
      7 F          64.9548   82.8683   10.2059 F       1  UNL1       -0.2044
      8 C          63.7738   83.6465   12.8517 C.3     1  UNL1        0.1261
      9 C          63.3969   85.0146   15.0280 C.2     1  UNL1        0.4055
     10 O          64.4831   85.9647   14.6188 O.2     1  UNL1       -0.2262
     11 N          63.0423   83.8554   14.1444 N.am    1  UNL1       -0.2365
     12 C          62.9740   86.4192   17.1723 C.3     1  UNL1        0.2573
     13 O          62.6654   85.2236   16.3207 O.3     1  UNL1       -0.4304
     14 C          61.9561   82.9053   14.5535 C.3     1  UNL1        0.1388
     15 C          62.0889   81.4411   14.2557 C.2     1  UNL1        0.0706
     16 O          60.8768   80.6375   13.8884 O.co2   1  UNL1       -0.5474
     17 O          63.4339   80.7807   14.3250 O.co2   1  UNL1       -0.5474
     18 O          60.5158   86.8983   10.4410 O.3     1  UNL1       -0.4689
     19 C          60.4998   87.9339   11.5260 C.3     1  UNL1        0.2537
     20 C          61.4638   89.0822   11.4811 C.ar    1  UNL1        0.1359
     21 N          62.4745   89.4265   12.5346 N.ar    1  UNL1       -0.2093
     22 C          63.2218   90.6448   12.0794 C.ar    1  UNL1        0.2290
     23 O          62.6729   91.0535   10.7446 O.2     1  UNL1       -0.4391
     24 C          61.5865   90.0877   10.3748 C.ar    1  UNL1        0.1421
     25 C          60.7666   90.1215    9.1192 C.3     1  UNL1        0.0740
     26 C          64.3244   91.3336   12.8277 C.ar    1  UNL1        0.0536
     27 C          65.1219   92.4149   12.1608 C.ar    1  UNL1        0.0055
     28 C          66.2245   93.1038   12.9090 C.ar    1  UNL1        0.0115
     29 C          66.5295   92.7112   14.3243 C.ar    1  UNL1        0.0577
     30 CL         67.6321   93.4000   15.0726 Cl      1  UNL1       -0.0822
     31 C          65.7320   91.6300   14.9912 C.ar    1  UNL1        0.0115
     32 C          64.6294   90.9412   14.2429 C.ar    1  UNL1        0.0055
@<TRIPOS>UNITY_ATOM_ATTR
16 1
charge -1
@<TRIPOS>BOND
     1    12    13    1
     2    13     9    1
     3     9    10    2
     4     9    11   am
     5    11    14    1
     6    14    15    1
     7    15    16   ar
     8    15    17   ar
     9    11     8    1
    10     8     1    1
    11     1     2   ar
    12     2     3   ar
    13     3    18    1
    14    18    19    1
    15    19    20    1
    16    20    21   ar
    17    21    22   ar
    18    22    26    1
    19    26    27   ar
    20    27    28   ar
    21    28    29   ar
    22    29    30    1
    23    29    31   ar
    24    31    32   ar
    25    22    23   ar
    26    23    24   ar
    27    24    25    1
    28     3     4   ar
    29     4     5   ar
    30     5     6   ar
    31     6     7    1
    32     6     1   ar
    33    24    20   ar
    34    32    26   ar
@<TRIPOS>MOLECULE
*****
 32 34 0 0 0
SMALL
GASTEIGER

@<TRIPOS>ATOM
      1 C          64.3320   91.5503   11.9490 C.ar    1  UNL1        0.0283
      2 C          64.3939   90.7783   13.2335 C.ar    1  UNL1        0.0365
      3 C          63.4281   89.6579   13.4825 C.ar    1  UNL1        0.1390
      4 C          62.4005   89.3095   12.4468 C.ar    1  UNL1        0.0392
      5 C          62.3386   90.0815   11.1623 C.ar    1  UNL1        0.0325
      6 C          63.3044   91.2019   10.9134 C.ar    1  UNL1        0.1379
      7 F          63.2425   91.9740    9.6287 F       1  UNL1       -0.2044
      8 C          65.2977   92.6708   11.7001 C.3     1  UNL1        0.1261
      9 C          67.0963   92.9053   13.5603 C.2     1  UNL1        0.4055
     10 O          66.0452   93.3870   14.5158 O.2     1  UNL1       -0.2262
     11 N          66.7226   92.5472   12.1523 N.am    1  UNL1       -0.2365
     12 C          68.8920   93.1237   15.4252 C.3     1  UNL1        0.2573
     13 O          68.5211   92.7818   14.0125 O.3     1  UNL1       -0.4304
     14 C          67.7737   92.0655   11.1968 C.3     1  UNL1        0.1388
     15 C          68.0622   92.8414    9.9458 C.2     1  UNL1        0.0706
     16 O          68.4703   92.1220    8.6944 O.co2   1  UNL1       -0.5474
     17 O          67.9426   94.3366    9.9462 O.co2   1  UNL1       -0.5474
     18 O          63.4900   88.8859   14.7671 O.3     1  UNL1       -0.4689
     19 C          64.4527   87.7445   14.9105 C.3     1  UNL1        0.2537
     20 C          63.9698   86.3325   14.7589 C.ar    1  UNL1        0.1359
     21 N          64.0473   85.5033   13.5114 N.ar    1  UNL1       -0.2093
     22 C          63.4500   84.1601   13.8097 C.ar    1  UNL1        0.2290
     23 O          63.0033   84.1591   15.2417 O.2     1  UNL1       -0.4391
     24 C          63.3245   85.5017   15.8283 C.ar    1  UNL1        0.1421
     25 C          63.0490   85.9371   17.2370 C.3     1  UNL1        0.0740
     26 C          63.3219   83.0183   12.8453 C.ar    1  UNL1        0.0536
     27 C          63.7243   83.1987   11.4117 C.ar    1  UNL1        0.0055
     28 C          63.5962   82.0569   10.4473 C.ar    1  UNL1        0.0115
     29 C          63.0656   80.7347   10.9167 C.ar    1  UNL1        0.0577
     30 CL         62.9375   79.5929    9.9523 Cl      1  UNL1       -0.0822
     31 C          62.6631   80.5544   12.3504 C.ar    1  UNL1        0.0115
     32 C          62.7913   81.6961   13.3147 C.ar    1  UNL1        0.0055
@<TRIPOS>UNITY_ATOM_ATTR
16 1
charge -1
@<TRIPOS>BOND
     1    12    13    1
     2    13     9    1
     3     9    10    2
     4     9    11   am
     5    11    14    1
     6    14    15    1
     7    15    16   ar
     8    15    17   ar
     9    11     8    1
    10     8     1    1
    11     1     2   ar
    12     2     3   ar
    13     3    18    1
    14    18    19    1
    15    19    20    1
    16    20    21   ar
    17    21    22   ar
    18    22    26    1
    19    26    27   ar
    20    27    28   ar
    21    28    29   ar
    22    29    30    1
    23    29    31   ar
    24    31    32   ar
    25    22    23   ar
    26    23    24   ar
    27    24    25    1
    28     3     4   ar
    29     4     5   ar
    30     5     6   ar
    31     6     7    1
    32     6     1   ar
    33    24    20   ar
    34    32    26   ar
@<TRIPOS>MOLECULE
*****
 32 34 0 0 0
SMALL
GASTEIGER

@<TRIPOS>ATOM
      1 C          63.1421   84.7381   11.5186 C.ar    1  UNL1        0.0283
      2 C          61.9603   85.6308   11.2813 C.ar    1  UNL1        0.0365
      3 C          61.4990   85.9083    9.8813 C.ar    1  UNL1        0.1390
      4 C          62.2195   85.2931    8.7184 C.ar    1  UNL1        0.0392
      5 C          63.4013   84.4003    8.9556 C.ar    1  UNL1        0.0325
      6 C          63.8626   84.1228   10.3557 C.ar    1  UNL1        0.1379
      7 F          65.0445   83.2300   10.5929 F       1  UNL1       -0.2044
      8 C          63.6034   84.4606   12.9186 C.3     1  UNL1        0.1261
      9 C          62.8452   82.0917   13.6692 C.2     1  UNL1        0.4055
     10 O          63.7251   81.4779   12.6209 O.2     1  UNL1       -0.2262
     11 N          62.7843   83.5831   13.8181 N.am    1  UNL1       -0.2365
     12 C          60.6727   80.7420   14.1265 C.3     1  UNL1        0.2573
     13 O          62.0261   81.2141   14.5687 O.3     1  UNL1       -0.4304
     14 C          61.9044   84.1969   14.8664 C.3     1  UNL1        0.1388
     15 C          62.5059   85.0439   15.9485 C.2     1  UNL1        0.0706
     16 O          61.6167   85.7808   16.9057 O.co2   1  UNL1       -0.5474
     17 O          63.9966   85.1539   16.0734 O.co2   1  UNL1       -0.5474
     18 O          60.3172   86.8011    9.6441 O.3     1  UNL1       -0.4689
     19 C          60.4983   88.2895    9.6007 C.3     1  UNL1        0.2537
     20 C          61.1103   89.0049   10.7684 C.ar    1  UNL1        0.1359
     21 N          62.5296   89.4802   10.8660 N.ar    1  UNL1       -0.2093
     22 C          62.7069   90.1397   12.2015 C.ar    1  UNL1        0.2290
     23 O          61.3970   90.0720   12.9294 O.2     1  UNL1       -0.4391
     24 C          60.4103   89.3707   12.0437 C.ar    1  UNL1        0.1421
     25 C          58.9755   89.0852   12.3751 C.3     1  UNL1        0.0740
     26 C          63.9719   90.7583   12.7184 C.ar    1  UNL1        0.0536
     27 C          64.5480   90.3051   14.0271 C.ar    1  UNL1        0.0055
     28 C          65.8130   90.9237   14.5441 C.ar    1  UNL1        0.0115
     29 C          66.5018   91.9955   13.7523 C.ar    1  UNL1        0.0577
     30 CL         67.7668   92.6141   14.2692 Cl      1  UNL1       -0.0822
     31 C          65.9256   92.4486   12.4436 C.ar    1  UNL1        0.0115
     32 C          64.6606   91.8300   11.9267 C.ar    1  UNL1        0.0055
@<TRIPOS>UNITY_ATOM_ATTR
16 1
charge -1
@<TRIPOS>BOND
     1    12    13    1
     2    13     9    1
     3     9    10    2
     4     9    11   am
     5    11    14    1
     6    14    15    1
     7    15    16   ar
     8    15    17   ar
     9    11     8    1
    10     8     1    1
    11     1     2   ar
    12     2     3   ar
    13     3    18    1
    14    18    19    1
    15    19    20    1
    16    20    21   ar
    17    21    22   ar
    18    22    26    1
    19    26    27   ar
    20    27    28   ar
    21    28    29   ar
    22    29    30    1
    23    29    31   ar
    24    31    32   ar
    25    22    23   ar
    26    23    24   ar
    27    24    25    1
    28     3     4   ar
    29     4     5   ar
    30     5     6   ar
    31     6     7    1
    32     6     1   ar
    33    24    20   ar
    34    32    26   ar
@<TRIPOS>MOLECULE
*****
 32 34 0 0 0
SMALL
GASTEIGER

@<TRIPOS>ATOM
      1 C          64.4759   91.4646   12.4665 C.ar    1  UNL1        0.0283
      2 C          64.5188   90.5861   13.6816 C.ar    1  UNL1        0.0365
      3 C          63.6930   89.3350   13.7321 C.ar    1  UNL1        0.1390
      4 C          62.8242   88.9622   12.5675 C.ar    1  UNL1        0.0392
      5 C          62.7813   89.8407   11.3525 C.ar    1  UNL1        0.0325
      6 C          63.6071   91.0919   11.3020 C.ar    1  UNL1        0.1379
      7 F          63.5641   91.9703   10.0868 F       1  UNL1       -0.2044
      8 C          65.3017   92.7158   12.4160 C.3     1  UNL1        0.1261
      9 C          67.0927   93.2202   10.6027 C.2     1  UNL1        0.4055
     10 O          66.0390   93.8420    9.7349 O.2     1  UNL1       -0.2262
     11 N          66.7240   92.6571   11.9433 N.am    1  UNL1       -0.2365
     12 C          68.8735   92.3339    8.9313 C.3     1  UNL1        0.2573
     13 O          68.5150   93.1614   10.1300 O.3     1  UNL1       -0.4304
     14 C          67.7777   92.0353   12.8111 C.3     1  UNL1        0.1388
     15 C          67.8006   92.3200   14.2837 C.2     1  UNL1        0.0706
     16 O          67.9947   93.7245   14.7732 O.co2   1  UNL1       -0.5474
     17 O          67.6293   91.2001   15.2668 O.co2   1  UNL1       -0.5474
     18 O          63.7360   88.4565   14.9472 O.3     1  UNL1       -0.4689
     19 C          64.5878   87.2218   14.9503 C.3     1  UNL1        0.2537
     20 C          63.9564   85.8745   14.7605 C.ar    1  UNL1        0.1359
     21 N          64.1146   84.9879   13.5610 N.ar    1  UNL1       -0.2093
     22 C          63.3119   83.7427   13.7959 C.ar    1  UNL1        0.2290
     23 O          62.6577   83.8597   15.1407 O.2     1  UNL1       -0.4391
     24 C          63.0561   85.1773   15.7368 C.ar    1  UNL1        0.1421
     25 C          62.6290   85.7050   17.0744 C.3     1  UNL1        0.0740
     26 C          63.1856   82.5839   12.8519 C.ar    1  UNL1        0.0536
     27 C          63.5562   82.7491   11.4078 C.ar    1  UNL1        0.0055
     28 C          63.4300   81.5903   10.4637 C.ar    1  UNL1        0.0115
     29 C          62.9331   80.2662   10.9638 C.ar    1  UNL1        0.0577
     30 CL         62.8068   79.1074   10.0198 Cl      1  UNL1       -0.0822
     31 C          62.5625   80.1010   12.4079 C.ar    1  UNL1        0.0115
     32 C          62.6888   81.2599   13.3519 C.ar    1  UNL1        0.0055
@<TRIPOS>UNITY_ATOM_ATTR
16 1
charge -1
@<TRIPOS>BOND
     1    12    13    1
     2    13     9    1
     3     9    10    2
     4     9    11   am
     5    11    14    1
     6    14    15    1
     7    15    16   ar
     8    15    17   ar
     9    11     8    1
    10     8     1    1
    11     1     2   ar
    12     2     3   ar
    13     3    18    1
    14    18    19    1
    15    19    20    1
    16    20    21   ar
    17    21    22   ar
    18    22    26    1
    19    26    27   ar
    20    27    28   ar
    21    28    29   ar
    22    29    30    1
    23    29    31   ar
    24    31    32   ar
    25    22    23   ar
    26    23    24   ar
    27    24    25    1
    28     3     4   ar
    29     4     5   ar
    30     5     6   ar
    31     6     7    1
    32     6     1   ar
    33    24    20   ar
    34    32    26   ar
@<TRIPOS>MOLECULE
*****
 32 34 0 0 0
SMALL
GASTEIGER

@<TRIPOS>ATOM
      1 C          62.2214   84.9448   11.4233 C.ar    1  UNL1        0.0283
      2 C          61.3016   85.9909   10.8668 C.ar    1  UNL1        0.0365
      3 C          61.4402   86.4284    9.4387 C.ar    1  UNL1        0.1390
      4 C          62.4986   85.8199    8.5672 C.ar    1  UNL1        0.0392
      5 C          63.4183   84.7738    9.1237 C.ar    1  UNL1        0.0325
      6 C          63.2797   84.3363   10.5518 C.ar    1  UNL1        0.1379
      7 F          64.1995   83.2901   11.1083 F       1  UNL1       -0.2044
      8 C          62.0828   84.5072   12.8514 C.3     1  UNL1        0.1261
      9 C          63.9953   85.8138   14.0284 C.2     1  UNL1        0.4055
     10 O          63.5217   87.0845   13.3873 O.2     1  UNL1       -0.2262
     11 N          63.2758   84.5251   13.7604 N.am    1  UNL1       -0.2365
     12 C          66.4224   85.0618   14.5706 C.3     1  UNL1        0.2573
     13 O          65.1883   85.8316   14.9374 O.3     1  UNL1       -0.4304
     14 C          63.7493   83.2544   14.4015 C.3     1  UNL1        0.1388
     15 C          63.1131   81.9466   14.0340 C.2     1  UNL1        0.0706
     16 O          63.8576   80.9645   13.1789 O.co2   1  UNL1       -0.5474
     17 O          61.7325   81.6209   14.5215 O.co2   1  UNL1       -0.5474
     18 O          60.5205   87.4746    8.8822 O.3     1  UNL1       -0.4689
     19 C          60.8429   88.9286    9.0611 C.3     1  UNL1        0.2537
     20 C          61.4132   89.4161   10.3599 C.ar    1  UNL1        0.1359
     21 N          62.7864   89.9850   10.5615 N.ar    1  UNL1       -0.2093
     22 C          62.9325   90.3408   12.0113 C.ar    1  UNL1        0.2290
     23 O          61.6495   89.9918   12.7058 O.2     1  UNL1       -0.4391
     24 C          60.7106   89.4203   11.6851 C.ar    1  UNL1        0.1421
     25 C          59.3142   88.9377   11.9442 C.3     1  UNL1        0.0740
     26 C          64.1480   90.9404   12.6540 C.ar    1  UNL1        0.0536
     27 C          64.6040   90.4528   13.9972 C.ar    1  UNL1        0.0055
     28 C          65.8195   91.0523   14.6399 C.ar    1  UNL1        0.0115
     29 C          66.5792   92.1395   13.9392 C.ar    1  UNL1        0.0577
     30 CL         67.7948   92.7391   14.5818 Cl      1  UNL1       -0.0822
     31 C          66.1232   92.6271   12.5959 C.ar    1  UNL1        0.0115
     32 C          64.9077   92.0276   11.9533 C.ar    1  UNL1        0.0055
@<TRIPOS>UNITY_ATOM_ATTR
16 1
charge -1
@<TRIPOS>BOND
     1    12    13    1
     2    13     9    1
     3     9    10    2
     4     9    11   am
     5    11    14    1
     6    14    15    1
     7    15    16   ar
     8    15    17   ar
     9    11     8    1
    10     8     1    1
    11     1     2   ar
    12     2     3   ar
    13     3    18    1
    14    18    19    1
    15    19    20    1
    16    20    21   ar
    17    21    22   ar
    18    22    26    1
    19    26    27   ar
    20    27    28   ar
    21    28    29   ar
    22    29    30    1
    23    29    31   ar
    24    31    32   ar
    25    22    23   ar
    26    23    24   ar
    27    24    25    1
    28     3     4   ar
    29     4     5   ar
    30     5     6   ar
    31     6     7    1
    32     6     1   ar
    33    24    20   ar
    34    32    26   ar
@<TRIPOS>MOLECULE
*****
 32 34 0 0 0
SMALL
GASTEIGER

@<TRIPOS>ATOM
      1 C          62.7940   84.9097   10.8378 C.ar    1  UNL1        0.0283
      2 C          61.9163   85.7812   11.6864 C.ar    1  UNL1        0.0365
      3 C          60.9875   86.7659   11.0401 C.ar    1  UNL1        0.1390
      4 C          60.9364   86.8791    9.5453 C.ar    1  UNL1        0.0392
      5 C          61.8141   86.0076    8.6967 C.ar    1  UNL1        0.0325
      6 C          62.7429   85.0229    9.3430 C.ar    1  UNL1        0.1379
      7 F          63.6207   84.1514    8.4944 F       1  UNL1       -0.2044
      8 C          63.7228   83.9250   11.4841 C.3     1  UNL1        0.1261
      9 C          62.8531   81.7056   12.5175 C.2     1  UNL1        0.4055
     10 O          62.8909   81.0605   11.1639 O.2     1  UNL1       -0.2262
     11 N          63.2691   83.1379   12.6776 N.am    1  UNL1       -0.2365
     12 C          60.9476   80.8978   14.0881 C.3     1  UNL1        0.2573
     13 O          62.3994   80.9185   13.7110 O.3     1  UNL1       -0.4304
     14 C          63.2313   83.7830   14.0313 C.3     1  UNL1        0.1388
     15 C          64.2075   84.8699   14.3716 C.2     1  UNL1        0.0706
     16 O          63.7135   86.2527   14.6778 O.co2   1  UNL1       -0.5474
     17 O          65.6776   84.5739   14.4058 O.co2   1  UNL1       -0.5474
     18 O          60.1097   87.6374   11.8887 O.3     1  UNL1       -0.4689
     19 C          60.1299   89.1262   11.7063 C.3     1  UNL1        0.2537
     20 C          61.4381   89.8482   11.5760 C.ar    1  UNL1        0.1359
     21 N          62.3577   90.2167   12.7022 N.ar    1  UNL1       -0.2093
     22 C          63.5445   90.9247   12.1189 C.ar    1  UNL1        0.2290
     23 O          63.3584   90.9937   10.6320 O.2     1  UNL1       -0.4391
     24 C          62.0566   90.3284   10.2965 C.ar    1  UNL1        0.1421
     25 C          61.4753   90.1708    8.9228 C.3     1  UNL1        0.0740
     26 C          64.7124   91.4683   12.8874 C.ar    1  UNL1        0.0536
     27 C          65.4350   92.6859   12.3920 C.ar    1  UNL1        0.0055
     28 C          66.6028   93.2295   13.1605 C.ar    1  UNL1        0.0115
     29 C          67.0481   92.5555   14.4244 C.ar    1  UNL1        0.0577
     30 CL         68.2160   93.0991   15.1930 Cl      1  UNL1       -0.0822
     31 C          66.3256   91.3379   14.9198 C.ar    1  UNL1        0.0115
     32 C          65.1577   90.7944   14.1513 C.ar    1  UNL1        0.0055
@<TRIPOS>UNITY_ATOM_ATTR
16 1
charge -1
@<TRIPOS>BOND
     1    12    13    1
     2    13     9    1
     3     9    10    2
     4     9    11   am
     5    11    14    1
     6    14    15    1
     7    15    16   ar
     8    15    17   ar
     9    11     8    1
    10     8     1    1
    11     1     2   ar
    12     2     3   ar
    13     3    18    1
    14    18    19    1
    15    19    20    1
    16    20    21   ar
    17    21    22   ar
    18    22    26    1
    19    26    27   ar
    20    27    28   ar
    21    28    29   ar
    22    29    30    1
    23    29    31   ar
    24    31    32   ar
    25    22    23   ar
    26    23    24   ar
    27    24    25    1
    28     3     4   ar
    29     4     5   ar
    30     5     6   ar
    31     6     7    1
    32     6     1   ar
    33    24    20   ar
    34    32    26   ar
