@<TRIPOS>MOLECULE
*****
 31 34 0 0 0
SMALL
GASTEIGER

@<TRIPOS>ATOM
      1 N          65.2289   90.8585   13.2508 N.am    1  UNL1       -0.2680
      2 C          64.1642   90.2394   12.3946 C.2     1  UNL1        0.3077
      3 O          63.4466   91.0701   11.3724 O.2     1  UNL1       -0.2522
      4 N          63.8170   88.7896   12.5606 N.am    1  UNL1       -0.2640
      5 C          64.4455   87.8385   13.5355 C.3     1  UNL1        0.0950
      6 C          63.7973   86.4975   13.3582 C.3     1  UNL1        0.0219
      7 C          63.7852   85.0808   13.8512 C.3     1  UNL1        0.0061
      8 C          62.7486   84.3275   13.0713 C.3     1  UNL1        0.0224
      9 C          62.1202   85.2786   12.0964 C.3     1  UNL1        0.0061
     10 C          62.7683   86.6197   12.2737 C.3     1  UNL1        0.0219
     11 C          62.7805   88.0363   11.7807 C.3     1  UNL1        0.0950
     12 H          65.6998   90.3132   13.9217 H       1  UNL1        0.1564
     13 C          66.0086   93.1165   14.2722 C.ar    1  UNL1        0.0467
     14 C          66.3558   94.5663   14.1062 C.ar    1  UNL1        0.1012
     15 N          66.2704   95.2078   12.7529 N.ar    1  UNL1       -0.2422
     16 C          65.8378   94.3996   11.5657 C.ar    1  UNL1        0.1002
     17 C          65.4907   92.9498   11.7317 C.ar    1  UNL1        0.0354
     18 C          65.5761   92.3083   13.0849 C.ar    1  UNL1        0.0557
     19 O          64.8504   91.9729   16.2972 O.co2   1  UNL1       -0.5445
     20 C          66.0940   92.4750   15.6254 C.2     1  UNL1        0.0756
     21 O          67.4230   92.3357   16.3068 O.co2   1  UNL1       -0.5445
     22 C          62.4015   82.8778   13.2373 C.ar    1  UNL1       -0.0186
     23 C          61.4492   82.4532   14.3156 C.ar    1  UNL1       -0.0043
     24 C          61.1020   81.0034   14.4816 C.ar    1  UNL1       -0.0003
     25 C          61.7072   79.9781   13.5692 C.ar    1  UNL1       -0.0001
     26 C          62.6595   80.4027   12.4908 C.ar    1  UNL1        0.0035
     27 C          63.0067   81.8524   12.3248 C.ar    1  UNL1        0.0675
     28 C          63.9590   82.2769   11.2465 C.3     1  UNL1        0.4183
     29 F          64.9113   82.7014   10.1681 F       1  UNL1       -0.1659
     30 F          65.0968   82.1993   12.2208 F       1  UNL1       -0.1659
     31 F          62.8211   82.3545   10.2722 F       1  UNL1       -0.1659
@<TRIPOS>UNITY_ATOM_ATTR
19 1
charge -1
@<TRIPOS>BOND
     1    19    20   ar
     2    20    21   ar
     3    20    13    1
     4    13    14   ar
     5    14    15   ar
     6    15    16   ar
     7    16    17   ar
     8    17    18   ar
     9    18     1    1
    10     1     2   am
    11     2     3    2
    12     2     4   am
    13     4     5    1
    14     6     5    1
    15     6     7    1
    16     7     8    1
    17     8    22    1
    18    22    23   ar
    19    23    24   ar
    20    24    25   ar
    21    25    26   ar
    22    26    27   ar
    23    27    28    1
    24    28    29    1
    25    28    30    1
    26    28    31    1
    27     8     9    1
    28    10     9    1
    29    10    11    1
    30    18    13   ar
    31    11     4    1
    32    10     6    1
    33    27    22   ar
    34     1    12    1
@<TRIPOS>MOLECULE
*****
 31 34 0 0 0
SMALL
GASTEIGER

@<TRIPOS>ATOM
      1 N          72.0246   79.3392    9.8575 N.am    1  UNL1       -0.2680
      2 C          72.7832   79.2240   11.1464 C.2     1  UNL1        0.3077
      3 O          73.5823   80.3880   11.6529 O.2     1  UNL1       -0.2522
      4 N          72.7427   77.9449   11.9288 N.am    1  UNL1       -0.2640
      5 C          71.9913   76.7031   11.5500 C.3     1  UNL1        0.0950
      6 C          72.2307   75.6737   12.6144 C.3     1  UNL1        0.0219
      7 C          71.9143   74.2701   13.0382 C.3     1  UNL1        0.0061
      8 C          72.6180   74.0080   14.3367 C.3     1  UNL1        0.0224
      9 C          73.3695   75.2498   14.7154 C.3     1  UNL1        0.0061
     10 C          73.1300   76.2792   13.6510 C.3     1  UNL1        0.0219
     11 C          73.4465   77.6829   13.2273 C.3     1  UNL1        0.0950
     12 H          71.5001   78.5753    9.5251 H       1  UNL1        0.1564
     13 C          72.1796   80.5797    7.5800 C.ar    1  UNL1        0.0467
     14 C          72.2201   81.8589    6.7976 C.ar    1  UNL1        0.1012
     15 N          72.1459   83.1767    7.5104 N.ar    1  UNL1       -0.2422
     16 C          72.0313   83.2153    9.0055 C.ar    1  UNL1        0.1002
     17 C          71.9909   81.9361    9.7878 C.ar    1  UNL1        0.0354
     18 C          72.0650   80.6184    9.0751 C.ar    1  UNL1        0.0557
     19 O          73.4098   78.3390    7.1156 O.co2   1  UNL1       -0.5445
     20 C          72.2538   79.2620    6.8672 C.2     1  UNL1        0.0756
     21 O          71.1720   78.8673    5.9061 O.co2   1  UNL1       -0.5445
     22 C          72.5776   72.7289   15.1190 C.ar    1  UNL1       -0.0186
     23 C          73.6301   71.6827   14.9010 C.ar    1  UNL1       -0.0043
     24 C          73.5897   70.4035   15.6833 C.ar    1  UNL1       -0.0003
     25 C          72.4966   70.1706   16.6838 C.ar    1  UNL1       -0.0001
     26 C          71.4440   71.2168   16.9019 C.ar    1  UNL1        0.0035
     27 C          71.4845   72.4959   16.1196 C.ar    1  UNL1        0.0675
     28 C          70.4319   73.5421   16.3377 C.3     1  UNL1        0.4183
     29 F          69.3794   74.5883   16.5557 F       1  UNL1       -0.1659
     30 F          71.1210   73.9725   17.5986 F       1  UNL1       -0.1659
     31 F          69.7429   73.1117   15.0767 F       1  UNL1       -0.1659
@<TRIPOS>UNITY_ATOM_ATTR
19 1
charge -1
@<TRIPOS>BOND
     1    19    20   ar
     2    20    21   ar
     3    20    13    1
     4    13    14   ar
     5    14    15   ar
     6    15    16   ar
     7    16    17   ar
     8    17    18   ar
     9    18     1    1
    10     1     2   am
    11     2     3    2
    12     2     4   am
    13     4     5    1
    14     6     5    1
    15     6     7    1
    16     7     8    1
    17     8    22    1
    18    22    23   ar
    19    23    24   ar
    20    24    25   ar
    21    25    26   ar
    22    26    27   ar
    23    27    28    1
    24    28    29    1
    25    28    30    1
    26    28    31    1
    27     8     9    1
    28    10     9    1
    29    10    11    1
    30    18    13   ar
    31    11     4    1
    32    10     6    1
    33    27    22   ar
    34     1    12    1
@<TRIPOS>MOLECULE
*****
 31 34 0 0 0
SMALL
GASTEIGER

@<TRIPOS>ATOM
      1 N          72.2926   79.1842    9.9223 N.am    1  UNL1       -0.2680
      2 C          72.1629   79.1614   11.4165 C.2     1  UNL1        0.3077
      3 O          71.9891   80.4444   12.1739 O.2     1  UNL1       -0.2522
      4 N          72.2071   77.8555   12.1533 N.am    1  UNL1       -0.2640
      5 C          72.3748   76.4994   11.5347 C.3     1  UNL1        0.0950
      6 C          72.3627   75.4823   12.6372 C.3     1  UNL1        0.0219
      7 C          72.4588   74.0156   12.9362 C.3     1  UNL1        0.0061
      8 C          72.3430   73.8366   14.4210 C.3     1  UNL1        0.0224
      9 C          72.1752   75.1929   15.0396 C.3     1  UNL1        0.0061
     10 C          72.1874   76.2099   13.9372 C.3     1  UNL1        0.0219
     11 C          72.0913   77.6767   13.6381 C.3     1  UNL1        0.0950
     12 H          72.4067   78.3421    9.4252 H       1  UNL1        0.1564
     13 C          72.3143   80.5082    7.6870 C.ar    1  UNL1        0.0467
     14 C          72.2701   81.8140    6.9502 C.ar    1  UNL1        0.1012
     15 N          72.1602   83.1016    7.7119 N.ar    1  UNL1       -0.2422
     16 C          72.0944   83.0834    9.2103 C.ar    1  UNL1        0.1002
     17 C          72.1386   81.7776    9.9471 C.ar    1  UNL1        0.0354
     18 C          72.2485   80.4900    9.1854 C.ar    1  UNL1        0.0557
     19 O          71.3376   78.8174    5.9732 O.co2   1  UNL1       -0.5445
     20 C          72.4242   79.2206    6.9254 C.2     1  UNL1        0.0756
     21 O          73.6207   78.3364    7.1159 O.co2   1  UNL1       -0.5445
     22 C          72.3871   72.5309   15.1578 C.ar    1  UNL1       -0.0186
     23 C          73.3274   72.3529   16.3129 C.ar    1  UNL1       -0.0043
     24 C          73.3716   71.0471   17.0498 C.ar    1  UNL1       -0.0003
     25 C          72.4755   69.9192   16.6315 C.ar    1  UNL1       -0.0001
     26 C          71.5351   70.0973   15.4764 C.ar    1  UNL1        0.0035
     27 C          71.4910   71.4030   14.7396 C.ar    1  UNL1        0.0675
     28 C          70.5507   71.5810   13.5845 C.3     1  UNL1        0.4183
     29 F          69.6104   71.7590   12.4295 F       1  UNL1       -0.1659
     30 F          69.6617   72.4344   14.4398 F       1  UNL1       -0.1659
     31 F          71.4397   70.7276   12.7293 F       1  UNL1       -0.1659
@<TRIPOS>UNITY_ATOM_ATTR
19 1
charge -1
@<TRIPOS>BOND
     1    19    20   ar
     2    20    21   ar
     3    20    13    1
     4    13    14   ar
     5    14    15   ar
     6    15    16   ar
     7    16    17   ar
     8    17    18   ar
     9    18     1    1
    10     1     2   am
    11     2     3    2
    12     2     4   am
    13     4     5    1
    14     6     5    1
    15     6     7    1
    16     7     8    1
    17     8    22    1
    18    22    23   ar
    19    23    24   ar
    20    24    25   ar
    21    25    26   ar
    22    26    27   ar
    23    27    28    1
    24    28    29    1
    25    28    30    1
    26    28    31    1
    27     8     9    1
    28    10     9    1
    29    10    11    1
    30    18    13   ar
    31    11     4    1
    32    10     6    1
    33    27    22   ar
    34     1    12    1
@<TRIPOS>MOLECULE
*****
 31 34 0 0 0
SMALL
GASTEIGER

@<TRIPOS>ATOM
      1 N          64.7010   88.5225   14.5152 N.am    1  UNL1       -0.2680
      2 C          63.7315   88.1673   13.4271 C.2     1  UNL1        0.3077
      3 O          62.9157   89.2407   12.7698 O.2     1  UNL1       -0.2522
      4 N          63.5779   86.7387   12.9964 N.am    1  UNL1       -0.2640
      5 C          64.3215   85.5635   13.5585 C.3     1  UNL1        0.0950
      6 C          63.8569   84.3330   12.8375 C.3     1  UNL1        0.0219
      7 C          64.0293   82.8462   12.7392 C.3     1  UNL1        0.0061
      8 C          63.1051   82.3419   11.6707 C.3     1  UNL1        0.0224
      9 C          62.3614   83.5172   11.1086 C.3     1  UNL1        0.0061
     10 C          62.8261   84.7477   11.8297 C.3     1  UNL1        0.0219
     11 C          62.6537   86.2345   11.9279 C.3     1  UNL1        0.0950
     12 H          65.2365   87.8179   14.9467 H       1  UNL1        0.1564
     13 C          63.9497   90.5184   15.9991 C.ar    1  UNL1        0.0467
     14 C          64.1034   91.9470   16.4298 C.ar    1  UNL1        0.1012
     15 N          65.1622   92.8082   15.8074 N.ar    1  UNL1       -0.2422
     16 C          66.0672   92.2409   14.7543 C.ar    1  UNL1        0.1002
     17 C          65.9134   90.8123   14.3236 C.ar    1  UNL1        0.0354
     18 C          64.8547   89.9511   14.9460 C.ar    1  UNL1        0.0557
     19 O          63.2266   88.7876   17.7968 O.co2   1  UNL1       -0.5445
     20 C          62.8910   89.6571   16.6215 C.2     1  UNL1        0.0756
     21 O          61.4966   89.6655   16.0687 O.co2   1  UNL1       -0.5445
     22 C          62.9514   80.9134   11.2400 C.ar    1  UNL1       -0.0186
     23 C          63.2237   80.5257    9.8168 C.ar    1  UNL1       -0.0043
     24 C          63.0701   79.0971    9.3860 C.ar    1  UNL1       -0.0003
     25 C          62.6442   78.0562   10.3785 C.ar    1  UNL1       -0.0001
     26 C          62.3719   78.4439   11.8018 C.ar    1  UNL1        0.0035
     27 C          62.5255   79.8724   12.2325 C.ar    1  UNL1        0.0675
     28 C          62.2533   80.2601   13.6557 C.3     1  UNL1        0.4183
     29 F          61.9810   80.6478   15.0790 F       1  UNL1       -0.1659
     30 F          63.6687   79.9213   14.0188 F       1  UNL1       -0.1659
     31 F          60.8378   80.5988   13.2927 F       1  UNL1       -0.1659
@<TRIPOS>UNITY_ATOM_ATTR
19 1
charge -1
@<TRIPOS>BOND
     1    19    20   ar
     2    20    21   ar
     3    20    13    1
     4    13    14   ar
     5    14    15   ar
     6    15    16   ar
     7    16    17   ar
     8    17    18   ar
     9    18     1    1
    10     1     2   am
    11     2     3    2
    12     2     4   am
    13     4     5    1
    14     6     5    1
    15     6     7    1
    16     7     8    1
    17     8    22    1
    18    22    23   ar
    19    23    24   ar
    20    24    25   ar
    21    25    26   ar
    22    26    27   ar
    23    27    28    1
    24    28    29    1
    25    28    30    1
    26    28    31    1
    27     8     9    1
    28    10     9    1
    29    10    11    1
    30    18    13   ar
    31    11     4    1
    32    10     6    1
    33    27    22   ar
    34     1    12    1
@<TRIPOS>MOLECULE
*****
 31 34 0 0 0
SMALL
GASTEIGER

@<TRIPOS>ATOM
      1 N          71.7274   79.7089    9.7868 N.am    1  UNL1       -0.2680
      2 C          72.6754   78.5525    9.9045 C.2     1  UNL1        0.3077
      3 O          73.6323   78.2507    8.7895 O.2     1  UNL1       -0.2522
      4 N          72.6665   77.6978   11.1371 N.am    1  UNL1       -0.2640
      5 C          71.7715   77.8766   12.3275 C.3     1  UNL1        0.0950
      6 C          72.1029   76.8036   13.3219 C.3     1  UNL1        0.0219
      7 C          71.7546   76.2509   14.6722 C.3     1  UNL1        0.0061
      8 C          72.6392   75.0674   14.9309 C.3     1  UNL1        0.0224
      9 C          73.5342   74.8886   13.7405 C.3     1  UNL1        0.0061
     10 C          73.2027   75.9617   12.7461 C.3     1  UNL1        0.0219
     11 C          73.5510   76.5143   11.3958 C.3     1  UNL1        0.0950
     12 H          71.0994   79.9070   10.5186 H       1  UNL1        0.1564
     13 C          72.1259   82.0092    8.6465 C.ar    1  UNL1        0.0467
     14 C          72.1347   82.8638    7.4139 C.ar    1  UNL1        0.1012
     15 N          71.7538   82.2729    6.0888 N.ar    1  UNL1       -0.2422
     16 C          71.3642   80.8274    5.9964 C.ar    1  UNL1        0.1002
     17 C          71.3554   79.9728    7.2291 C.ar    1  UNL1        0.0354
     18 C          71.7362   80.5637    8.5541 C.ar    1  UNL1        0.0557
     19 O          73.3625   81.8180   10.9235 O.co2   1  UNL1       -0.5445
     20 C          72.5068   82.6001    9.9716 C.2     1  UNL1        0.0756
     21 O          72.0319   83.9731   10.3448 O.co2   1  UNL1       -0.5445
     22 C          72.6303   74.2128   16.1635 C.ar    1  UNL1       -0.0186
     23 C          73.5373   74.5430   17.3117 C.ar    1  UNL1       -0.0043
     24 C          73.5285   73.6883   18.5444 C.ar    1  UNL1       -0.0003
     25 C          72.6125   72.5035   18.6289 C.ar    1  UNL1       -0.0001
     26 C          71.7055   72.1732   17.4807 C.ar    1  UNL1        0.0035
     27 C          71.7143   73.0279   16.2481 C.ar    1  UNL1        0.0675
     28 C          70.8073   72.6977   15.0999 C.3     1  UNL1        0.4183
     29 F          69.9003   72.3675   13.9518 F       1  UNL1       -0.1659
     30 F          71.8404   71.7569   14.5543 F       1  UNL1       -0.1659
     31 F          69.7742   73.6384   15.6455 F       1  UNL1       -0.1659
@<TRIPOS>UNITY_ATOM_ATTR
19 1
charge -1
@<TRIPOS>BOND
     1    19    20   ar
     2    20    21   ar
     3    20    13    1
     4    13    14   ar
     5    14    15   ar
     6    15    16   ar
     7    16    17   ar
     8    17    18   ar
     9    18     1    1
    10     1     2   am
    11     2     3    2
    12     2     4   am
    13     4     5    1
    14     6     5    1
    15     6     7    1
    16     7     8    1
    17     8    22    1
    18    22    23   ar
    19    23    24   ar
    20    24    25   ar
    21    25    26   ar
    22    26    27   ar
    23    27    28    1
    24    28    29    1
    25    28    30    1
    26    28    31    1
    27     8     9    1
    28    10     9    1
    29    10    11    1
    30    18    13   ar
    31    11     4    1
    32    10     6    1
    33    27    22   ar
    34     1    12    1
@<TRIPOS>MOLECULE
*****
 31 34 0 0 0
SMALL
GASTEIGER

@<TRIPOS>ATOM
      1 N          60.1637   93.1630    0.0536 N.am    1  UNL1       -0.2680
      2 C          59.4446   94.4787    0.0942 C.2     1  UNL1        0.3077
      3 O          59.8304   95.5132    1.1096 O.2     1  UNL1       -0.2522
      4 N          58.3398   94.7601   -0.8807 N.am    1  UNL1       -0.2640
      5 C          57.8461   93.8277   -1.9469 C.3     1  UNL1        0.0950
      6 C          56.7360   94.5146   -2.6856 C.3     1  UNL1        0.0219
      7 C          55.7447   94.3629   -3.8011 C.3     1  UNL1        0.0061
      8 C          54.9396   95.6260   -3.8809 C.3     1  UNL1        0.0224
      9 C          55.4334   96.5585   -2.8146 C.3     1  UNL1        0.0061
     10 C          56.5435   95.8715   -2.0759 C.3     1  UNL1        0.0219
     11 C          57.5348   96.0233   -0.9604 C.3     1  UNL1        0.0950
     12 H          59.9105   92.4840   -0.6129 H       1  UNL1        0.1564
     13 C          62.6868   93.2144    0.6711 C.ar    1  UNL1        0.0467
     14 C          63.7915   92.9330    1.6460 C.ar    1  UNL1        0.1012
     15 N          63.4779   92.3186    2.9780 N.ar    1  UNL1       -0.2422
     16 C          62.0597   91.9857    3.3352 C.ar    1  UNL1        0.1002
     17 C          60.9549   92.2672    2.3604 C.ar    1  UNL1        0.0354
     18 C          61.2685   92.8815    1.0284 C.ar    1  UNL1        0.0557
     19 O          62.5637   93.1461   -1.9231 O.co2   1  UNL1       -0.5445
     20 C          63.0003   93.8288   -0.6609 C.2     1  UNL1        0.0756
     21 O          63.7506   95.1258   -0.7306 O.co2   1  UNL1       -0.5445
     22 C          53.8349   95.9074   -4.8556 C.ar    1  UNL1       -0.0186
     23 C          52.4658   96.2621   -4.3558 C.ar    1  UNL1       -0.0043
     24 C          51.3610   96.5435   -5.3306 C.ar    1  UNL1       -0.0003
     25 C          51.6253   96.4701   -6.8053 C.ar    1  UNL1       -0.0001
     26 C          52.9944   96.1155   -7.3052 C.ar    1  UNL1        0.0035
     27 C          54.0991   95.8341   -6.3304 C.ar    1  UNL1        0.0675
     28 C          55.4682   95.4794   -6.8303 C.3     1  UNL1        0.4183
     29 F          56.8372   95.1248   -7.3301 F       1  UNL1       -0.1659
     30 F          55.9520   96.8559   -6.4819 F       1  UNL1       -0.1659
     31 F          54.9844   94.1030   -7.1787 F       1  UNL1       -0.1659
@<TRIPOS>UNITY_ATOM_ATTR
19 1
charge -1
@<TRIPOS>BOND
     1    19    20   ar
     2    20    21   ar
     3    20    13    1
     4    13    14   ar
     5    14    15   ar
     6    15    16   ar
     7    16    17   ar
     8    17    18   ar
     9    18     1    1
    10     1     2   am
    11     2     3    2
    12     2     4   am
    13     4     5    1
    14     6     5    1
    15     6     7    1
    16     7     8    1
    17     8    22    1
    18    22    23   ar
    19    23    24   ar
    20    24    25   ar
    21    25    26   ar
    22    26    27   ar
    23    27    28    1
    24    28    29    1
    25    28    30    1
    26    28    31    1
    27     8     9    1
    28    10     9    1
    29    10    11    1
    30    18    13   ar
    31    11     4    1
    32    10     6    1
    33    27    22   ar
    34     1    12    1
@<TRIPOS>MOLECULE
*****
 31 34 0 0 0
SMALL
GASTEIGER

@<TRIPOS>ATOM
      1 N          65.1328   90.5038   13.3081 N.am    1  UNL1       -0.2680
      2 C          64.7748   89.6775   14.5077 C.2     1  UNL1        0.3077
      3 O          64.8820   90.2664   15.8831 O.2     1  UNL1       -0.2522
      4 N          64.3095   88.2623   14.3319 N.am    1  UNL1       -0.2640
      5 C          64.1532   87.5415   13.0258 C.3     1  UNL1        0.0950
      6 C          63.6660   86.1532   13.3181 C.3     1  UNL1        0.0219
      7 C          63.2683   84.8497   12.6915 C.3     1  UNL1        0.0061
      8 C          62.8777   83.9069   13.7909 C.3     1  UNL1        0.0224
      9 C          63.0340   84.6279   15.0971 C.3     1  UNL1        0.0061
     10 C          63.5212   86.0161   14.8048 C.3     1  UNL1        0.0219
     11 C          63.9190   87.3197   15.4314 C.3     1  UNL1        0.0950
     12 H          65.0624   90.1173   12.4054 H       1  UNL1        0.1564
     13 C          65.6068   92.8564   12.3129 C.ar    1  UNL1        0.0467
     14 C          66.0720   94.2716   12.4887 C.ar    1  UNL1        0.1012
     15 N          66.5285   94.7492   13.8354 N.ar    1  UNL1       -0.2422
     16 C          66.5197   93.8118   15.0063 C.ar    1  UNL1        0.1002
     17 C          66.0545   92.3966   14.8305 C.ar    1  UNL1        0.0354
     18 C          65.5980   91.9190   13.4838 C.ar    1  UNL1        0.0557
     19 O          63.8677   91.6117   10.8377 O.co2   1  UNL1       -0.5445
     20 C          65.1503   92.3788   10.9663 C.2     1  UNL1        0.0756
     21 O          65.9764   92.6684    9.7482 O.co2   1  UNL1       -0.5445
     22 C          62.4125   82.4919   13.6152 C.ar    1  UNL1       -0.0186
     23 C          61.3763   81.9228   14.5385 C.ar    1  UNL1       -0.0043
     24 C          60.9110   80.5076   14.3628 C.ar    1  UNL1       -0.0003
     25 C          61.4820   79.6615   13.2637 C.ar    1  UNL1       -0.0001
     26 C          62.5182   80.2306   12.3403 C.ar    1  UNL1        0.0035
     27 C          62.9834   81.6456   12.5160 C.ar    1  UNL1        0.0675
     28 C          64.0196   82.2147   11.5927 C.3     1  UNL1        0.4183
     29 F          65.0558   82.7837   10.6694 F       1  UNL1       -0.1659
     30 F          65.0721   81.9951   12.6386 F       1  UNL1       -0.1659
     31 F          62.9670   82.4342   10.5468 F       1  UNL1       -0.1659
@<TRIPOS>UNITY_ATOM_ATTR
19 1
charge -1
@<TRIPOS>BOND
     1    19    20   ar
     2    20    21   ar
     3    20    13    1
     4    13    14   ar
     5    14    15   ar
     6    15    16   ar
     7    16    17   ar
     8    17    18   ar
     9    18     1    1
    10     1     2   am
    11     2     3    2
    12     2     4   am
    13     4     5    1
    14     6     5    1
    15     6     7    1
    16     7     8    1
    17     8    22    1
    18    22    23   ar
    19    23    24   ar
    20    24    25   ar
    21    25    26   ar
    22    26    27   ar
    23    27    28    1
    24    28    29    1
    25    28    30    1
    26    28    31    1
    27     8     9    1
    28    10     9    1
    29    10    11    1
    30    18    13   ar
    31    11     4    1
    32    10     6    1
    33    27    22   ar
    34     1    12    1
@<TRIPOS>MOLECULE
*****
 31 34 0 0 0
SMALL
GASTEIGER

@<TRIPOS>ATOM
      1 N          63.7192   88.2902   14.7063 N.am    1  UNL1       -0.2680
      2 C          64.1971   89.6558   15.1021 C.2     1  UNL1        0.3077
      3 O          64.2824   90.0294   16.5523 O.2     1  UNL1       -0.2522
      4 N          64.5897   90.6478   14.0477 N.am    1  UNL1       -0.2640
      5 C          64.5574   90.4186   12.5657 C.3     1  UNL1        0.0950
      6 C          65.0313   91.6724   11.8923 C.3     1  UNL1        0.0219
      7 C          65.3042   92.3056   10.5601 C.3     1  UNL1        0.0061
      8 C          65.7980   93.7011   10.8026 C.3     1  UNL1        0.0224
      9 C          65.8303   93.9303   12.2847 C.3     1  UNL1        0.0061
     10 C          65.3565   92.6765   12.9581 C.3     1  UNL1        0.0219
     11 C          65.0836   92.0433   14.2902 C.3     1  UNL1        0.0950
     12 H          63.6632   88.0450   13.7544 H       1  UNL1        0.1564
     13 C          63.3861   85.8284   15.4669 C.ar    1  UNL1        0.0467
     14 C          62.9935   84.8364   16.5213 C.ar    1  UNL1        0.1012
     15 N          62.5413   85.3141   17.8693 N.ar    1  UNL1       -0.2422
     16 C          62.4817   86.7838   18.1631 C.ar    1  UNL1        0.1002
     17 C          62.8743   87.7758   17.1087 C.ar    1  UNL1        0.0354
     18 C          63.3265   87.2981   15.7606 C.ar    1  UNL1        0.0557
     19 O          64.9003   84.2964   14.0141 O.co2   1  UNL1       -0.5445
     20 C          63.8384   85.3507   14.1188 C.2     1  UNL1        0.0756
     21 O          63.2287   85.9272   12.8755 O.co2   1  UNL1       -0.5445
     22 C          66.1906   94.6930    9.7483 C.ar    1  UNL1       -0.0186
     23 C          65.2972   95.8594    9.4460 C.ar    1  UNL1       -0.0043
     24 C          65.6898   96.8515    8.3916 C.ar    1  UNL1       -0.0003
     25 C          66.9758   96.6772    7.6395 C.ar    1  UNL1       -0.0001
     26 C          67.8693   95.5108    7.9418 C.ar    1  UNL1        0.0035
     27 C          67.4767   94.5188    8.9961 C.ar    1  UNL1        0.0675
     28 C          68.3701   93.3524    9.2984 C.3     1  UNL1        0.4183
     29 F          69.2635   92.1860    9.6007 F       1  UNL1       -0.1659
     30 F          68.3013   93.6787   10.7608 F       1  UNL1       -0.1659
     31 F          68.4389   93.0261    7.8359 F       1  UNL1       -0.1659
@<TRIPOS>UNITY_ATOM_ATTR
19 1
charge -1
@<TRIPOS>BOND
     1    19    20   ar
     2    20    21   ar
     3    20    13    1
     4    13    14   ar
     5    14    15   ar
     6    15    16   ar
     7    16    17   ar
     8    17    18   ar
     9    18     1    1
    10     1     2   am
    11     2     3    2
    12     2     4   am
    13     4     5    1
    14     6     5    1
    15     6     7    1
    16     7     8    1
    17     8    22    1
    18    22    23   ar
    19    23    24   ar
    20    24    25   ar
    21    25    26   ar
    22    26    27   ar
    23    27    28    1
    24    28    29    1
    25    28    30    1
    26    28    31    1
    27     8     9    1
    28    10     9    1
    29    10    11    1
    30    18    13   ar
    31    11     4    1
    32    10     6    1
    33    27    22   ar
    34     1    12    1
@<TRIPOS>MOLECULE
*****
 31 34 0 0 0
SMALL
GASTEIGER

@<TRIPOS>ATOM
      1 N          61.1812   94.6563   -0.7026 N.am    1  UNL1       -0.2680
      2 C          60.1649   93.6394   -1.1305 C.2     1  UNL1        0.3077
      3 O          60.3569   92.1937   -0.7798 O.2     1  UNL1       -0.2522
      4 N          58.9567   94.0683   -1.9091 N.am    1  UNL1       -0.2640
      5 C          58.6315   95.4706   -2.3307 C.3     1  UNL1        0.0950
      6 C          57.3354   95.4390   -3.0850 C.3     1  UNL1        0.0219
      7 C          56.3334   96.2862   -3.8118 C.3     1  UNL1        0.0061
      8 C          55.2381   95.3880   -4.3055 C.3     1  UNL1        0.0224
      9 C          55.5633   93.9857   -3.8839 C.3     1  UNL1        0.0061
     10 C          56.8595   94.0172   -3.1296 C.3     1  UNL1        0.0219
     11 C          57.8615   93.1700   -2.4028 C.3     1  UNL1        0.0950
     12 H          61.0552   95.6052   -0.9327 H       1  UNL1        0.1564
     13 C          62.2603   93.8783    1.5291 C.ar    1  UNL1        0.0467
     14 C          63.4686   93.4496    2.3077 C.ar    1  UNL1        0.1012
     15 N          64.8060   93.3700    1.6332 N.ar    1  UNL1       -0.2422
     16 C          64.9352   93.7192    0.1802 C.ar    1  UNL1        0.1002
     17 C          63.7269   94.1480   -0.5984 C.ar    1  UNL1        0.0354
     18 C          62.3895   94.2275    0.0761 C.ar    1  UNL1        0.0557
     19 O          60.3803   92.7667    2.9363 O.co2   1  UNL1       -0.5445
     20 C          60.9228   93.9578    2.2036 C.2     1  UNL1        0.0756
     21 O          60.1279   95.2285    2.1454 O.co2   1  UNL1       -0.5445
     22 C          54.0299   95.8168   -5.0841 C.ar    1  UNL1       -0.0186
     23 C          54.1092   95.9558   -6.5756 C.ar    1  UNL1       -0.0043
     24 C          52.9010   96.3846   -7.3543 C.ar    1  UNL1       -0.0003
     25 C          51.6134   96.6745   -6.6415 C.ar    1  UNL1       -0.0001
     26 C          51.5341   96.5355   -5.1499 C.ar    1  UNL1        0.0035
     27 C          52.7423   96.1067   -4.3714 C.ar    1  UNL1        0.0675
     28 C          52.6630   95.9678   -2.8799 C.3     1  UNL1        0.4183
     29 F          52.5836   95.8288   -1.3885 F       1  UNL1       -0.1659
     30 F          53.8637   96.8547   -2.7334 F       1  UNL1       -0.1659
     31 F          51.4622   95.0808   -3.0264 F       1  UNL1       -0.1659
@<TRIPOS>UNITY_ATOM_ATTR
19 1
charge -1
@<TRIPOS>BOND
     1    19    20   ar
     2    20    21   ar
     3    20    13    1
     4    13    14   ar
     5    14    15   ar
     6    15    16   ar
     7    16    17   ar
     8    17    18   ar
     9    18     1    1
    10     1     2   am
    11     2     3    2
    12     2     4   am
    13     4     5    1
    14     6     5    1
    15     6     7    1
    16     7     8    1
    17     8    22    1
    18    22    23   ar
    19    23    24   ar
    20    24    25   ar
    21    25    26   ar
    22    26    27   ar
    23    27    28    1
    24    28    29    1
    25    28    30    1
    26    28    31    1
    27     8     9    1
    28    10     9    1
    29    10    11    1
    30    18    13   ar
    31    11     4    1
    32    10     6    1
    33    27    22   ar
    34     1    12    1
