@<TRIPOS>MOLECULE
*****
 19 21 0 0 0
SMALL
GASTEIGER

@<TRIPOS>ATOM
      1 C          64.1850   89.7580   14.3157 C.2     1  UNL1        0.0381
      2 C          65.0302   90.9451   14.6713 C.2     1  UNL1        0.0999
      3 N          65.0553   91.8671   13.4884 N.2     1  UNL1       -0.2478
      4 C          64.2256   91.2499   12.4018 C.2     1  UNL1        0.0635
      5 C          63.8904   91.7065   11.0129 C.3     1  UNL1        0.0722
      6 C          63.0174   90.8594   10.1353 C.2     1  UNL1       -0.0131
      7 C          62.4795   89.5559   10.6465 C.2     1  UNL1        0.0307
      8 BR         61.6064   88.7089    9.7688 Br      1  UNL1       -0.0493
      9 C          62.8147   89.0993   12.0355 C.2     1  UNL1        0.0077
     10 C          63.6877   89.9464   12.9131 C.2     1  UNL1        0.0173
     11 N          64.4229   84.6558   15.2704 N.pl3   1  UNL1       -0.3274
     12 C          64.0079   86.0367   15.6837 C.ar    1  UNL1        0.2137
     13 N          63.2970   86.2476   16.9876 N.ar    1  UNL1       -0.2125
     14 C          62.8821   87.6285   17.4008 C.ar    1  UNL1        0.1034
     15 C          63.1781   88.7986   16.5102 C.ar    1  UNL1        0.0400
     16 C          63.8890   88.5879   15.2064 C.ar    1  UNL1        0.0872
     17 N          64.3039   87.2068   14.7931 N.ar    1  UNL1       -0.2139
     18 H          64.2286   83.8878   15.8549 H       1  UNL1        0.1452
     19 H          64.8895   84.5175   14.4146 H       1  UNL1        0.1452
@<TRIPOS>BOND
     1    11    12    1
     2    12    13   ar
     3    13    14   ar
     4    14    15   ar
     5    15    16   ar
     6    16     1    1
     7     1     2    2
     8     2     3    1
     9     3     4    2
    10     4     5    1
    11     5     6    1
    12     6     7    2
    13     7     8    1
    14     7     9    1
    15     9    10    2
    16    16    17   ar
    17    17    12   ar
    18    10     1    1
    19    10     4    1
    20    11    18    1
    21    11    19    1
@<TRIPOS>MOLECULE
*****
 19 21 0 0 0
SMALL
GASTEIGER

@<TRIPOS>ATOM
      1 C          64.0635   89.9077   13.7382 C.2     1  UNL1        0.0381
      2 C          63.3790   90.0066   12.4072 C.2     1  UNL1        0.0999
      3 N          63.9013   91.2260   11.7069 N.2     1  UNL1       -0.2478
      4 C          64.9087   91.8806   12.6052 C.2     1  UNL1        0.0635
      5 C          65.7476   93.1133   12.4421 C.3     1  UNL1        0.0722
      6 C          66.6867   93.5312   13.5344 C.2     1  UNL1       -0.0131
      7 C          66.7870   92.7164   14.7898 C.2     1  UNL1        0.0307
      8 BR         67.7262   93.1344   15.8822 Br      1  UNL1       -0.0493
      9 C          65.9481   91.4837   14.9529 C.2     1  UNL1        0.0077
     10 C          65.0089   91.0658   13.8606 C.2     1  UNL1        0.0173
     11 N          64.4393   84.9410   15.2185 N.pl3   1  UNL1       -0.3274
     12 C          64.0295   86.3549   15.5066 C.ar    1  UNL1        0.2137
     13 N          63.3979   86.6994   16.8228 N.ar    1  UNL1       -0.2125
     14 C          62.9882   88.1133   17.1108 C.ar    1  UNL1        0.1034
     15 C          63.2101   89.1827   16.0826 C.ar    1  UNL1        0.0400
     16 C          63.8417   88.8383   14.7664 C.ar    1  UNL1        0.0872
     17 N          64.2514   87.4243   14.4784 N.ar    1  UNL1       -0.2139
     18 H          64.2937   84.2391   15.8933 H       1  UNL1        0.1452
     19 H          64.8538   84.7149   14.3547 H       1  UNL1        0.1452
@<TRIPOS>BOND
     1    11    12    1
     2    12    13   ar
     3    13    14   ar
     4    14    15   ar
     5    15    16   ar
     6    16     1    1
     7     1     2    2
     8     2     3    1
     9     3     4    2
    10     4     5    1
    11     5     6    1
    12     6     7    2
    13     7     8    1
    14     7     9    1
    15     9    10    2
    16    16    17   ar
    17    17    12   ar
    18    10     1    1
    19    10     4    1
    20    11    18    1
    21    11    19    1
@<TRIPOS>MOLECULE
*****
 19 21 0 0 0
SMALL
GASTEIGER

@<TRIPOS>ATOM
      1 C          62.7591   85.9017   11.9124 C.2     1  UNL1        0.0381
      2 C          63.4329   86.9225   12.7807 C.2     1  UNL1        0.0999
      3 N          63.0263   88.2830   12.2973 N.2     1  UNL1       -0.2478
      4 C          62.1012   88.1031   11.1304 C.2     1  UNL1        0.0635
      5 C          61.3878   89.0892   10.2537 C.3     1  UNL1        0.0722
      6 C          60.5093   88.6035    9.1391 C.2     1  UNL1       -0.0131
      7 C          60.3442   87.1318    8.9012 C.2     1  UNL1        0.0307
      8 BR         59.4657   86.6461    7.7865 Br      1  UNL1       -0.0493
      9 C          61.0576   86.1456    9.7779 C.2     1  UNL1        0.0077
     10 C          61.9360   86.6313   10.8925 C.2     1  UNL1        0.0173
     11 N          62.1786   81.5615   14.7098 N.pl3   1  UNL1       -0.3274
     12 C          62.5958   82.2425   13.4401 C.ar    1  UNL1        0.2137
     13 N          63.1400   81.4345   12.2994 N.ar    1  UNL1       -0.2125
     14 C          63.5572   82.1157   11.0298 C.ar    1  UNL1        0.1034
     15 C          63.4302   83.6047   10.9008 C.ar    1  UNL1        0.0400
     16 C          62.8861   84.4127   12.0414 C.ar    1  UNL1        0.0872
     17 N          62.4689   83.7315   13.3111 N.ar    1  UNL1       -0.2139
     18 H          62.2619   80.5842   14.7945 H       1  UNL1        0.1452
     19 H          61.8215   82.0918   15.4584 H       1  UNL1        0.1452
@<TRIPOS>BOND
     1    11    12    1
     2    12    13   ar
     3    13    14   ar
     4    14    15   ar
     5    15    16   ar
     6    16     1    1
     7     1     2    2
     8     2     3    1
     9     3     4    2
    10     4     5    1
    11     5     6    1
    12     6     7    2
    13     7     8    1
    14     7     9    1
    15     9    10    2
    16    16    17   ar
    17    17    12   ar
    18    10     1    1
    19    10     4    1
    20    11    18    1
    21    11    19    1
@<TRIPOS>MOLECULE
*****
 19 21 0 0 0
SMALL
GASTEIGER

@<TRIPOS>ATOM
      1 C          62.2741   86.3199   10.0019 C.2     1  UNL1        0.0381
      2 C          62.5409   85.9498    8.5729 C.2     1  UNL1        0.0999
      3 N          63.2082   84.6065    8.5590 N.2     1  UNL1       -0.2478
      4 C          63.3538   84.1464    9.9792 C.2     1  UNL1        0.0635
      5 C          63.9375   82.9000   10.5756 C.3     1  UNL1        0.0722
      6 C          63.9438   82.7125   12.0638 C.2     1  UNL1       -0.0131
      7 C          63.3664   83.7715   12.9556 C.2     1  UNL1        0.0307
      8 BR         63.3728   83.5840   14.4439 Br      1  UNL1       -0.0493
      9 C          62.7828   85.0179   12.3592 C.2     1  UNL1        0.0077
     10 C          62.7764   85.2053   10.8710 C.2     1  UNL1        0.0173
     11 N          58.6014   88.7079   12.7963 N.pl3   1  UNL1       -0.3274
     12 C          59.7833   88.7769   11.8754 C.ar    1  UNL1        0.2137
     13 N          60.3109   90.1087   11.4306 N.ar    1  UNL1       -0.2125
     14 C          61.4929   90.1776   10.5097 C.ar    1  UNL1        0.1034
     15 C          62.1473   88.9147   10.0334 C.ar    1  UNL1        0.0400
     16 C          61.6197   87.5829   10.4781 C.ar    1  UNL1        0.0872
     17 N          60.4377   87.5139   11.3991 N.ar    1  UNL1       -0.2139
     18 H          58.1719   89.5368   13.1089 H       1  UNL1        0.1452
     19 H          58.2551   87.8337   13.0882 H       1  UNL1        0.1452
@<TRIPOS>BOND
     1    11    12    1
     2    12    13   ar
     3    13    14   ar
     4    14    15   ar
     5    15    16   ar
     6    16     1    1
     7     1     2    2
     8     2     3    1
     9     3     4    2
    10     4     5    1
    11     5     6    1
    12     6     7    2
    13     7     8    1
    14     7     9    1
    15     9    10    2
    16    16    17   ar
    17    17    12   ar
    18    10     1    1
    19    10     4    1
    20    11    18    1
    21    11    19    1
@<TRIPOS>MOLECULE
*****
 19 21 0 0 0
SMALL
GASTEIGER

@<TRIPOS>ATOM
      1 C          62.5131   85.9536   10.9584 C.2     1  UNL1        0.0381
      2 C          62.8255   87.2618   11.6223 C.2     1  UNL1        0.0999
      3 N          63.3330   86.9711   13.0035 N.2     1  UNL1       -0.2478
      4 C          63.3342   85.4831   13.1933 C.2     1  UNL1        0.0635
      5 C          63.7313   84.6196   14.3537 C.3     1  UNL1        0.0722
      6 C          63.6216   83.1273   14.2501 C.2     1  UNL1       -0.0131
      7 C          63.1148   82.4984   12.9861 C.2     1  UNL1        0.0307
      8 BR         63.0051   81.0060   12.8826 Br      1  UNL1       -0.0493
      9 C          62.7177   83.3619   11.8257 C.2     1  UNL1        0.0077
     10 C          62.8274   84.8543   11.9293 C.2     1  UNL1        0.0173
     11 N          58.6725   86.5214    7.5048 N.pl3   1  UNL1       -0.3274
     12 C          60.0595   86.0597    7.8408 C.ar    1  UNL1        0.2137
     13 N          60.9132   85.4202    6.7862 N.ar    1  UNL1       -0.2125
     14 C          62.3003   84.9585    7.1224 C.ar    1  UNL1        0.1034
     15 C          62.8335   85.1363    8.5131 C.ar    1  UNL1        0.0400
     16 C          61.9798   85.7758    9.5676 C.ar    1  UNL1        0.0872
     17 N          60.5927   86.2375    9.2315 N.ar    1  UNL1       -0.2139
     18 H          58.3224   86.4047    6.5920 H       1  UNL1        0.1452
     19 H          58.1121   86.9411    8.1969 H       1  UNL1        0.1452
@<TRIPOS>BOND
     1    11    12    1
     2    12    13   ar
     3    13    14   ar
     4    14    15   ar
     5    15    16   ar
     6    16     1    1
     7     1     2    2
     8     2     3    1
     9     3     4    2
    10     4     5    1
    11     5     6    1
    12     6     7    2
    13     7     8    1
    14     7     9    1
    15     9    10    2
    16    16    17   ar
    17    17    12   ar
    18    10     1    1
    19    10     4    1
    20    11    18    1
    21    11    19    1
@<TRIPOS>MOLECULE
*****
 19 21 0 0 0
SMALL
GASTEIGER

@<TRIPOS>ATOM
      1 C          62.1957   86.3028   11.2157 C.2     1  UNL1        0.0381
      2 C          61.3213   85.9922   10.0372 C.2     1  UNL1        0.0999
      3 N          60.9861   87.2854    9.3551 N.2     1  UNL1       -0.2478
      4 C          61.6533   88.3952   10.1121 C.2     1  UNL1        0.0635
      5 C          61.6768   89.8804    9.9029 C.3     1  UNL1        0.0722
      6 C          62.4478   90.7582   10.8436 C.2     1  UNL1       -0.0131
      7 C          63.1954   90.1509   11.9935 C.2     1  UNL1        0.0307
      8 BR         63.9664   91.0288   12.9342 Br      1  UNL1       -0.0493
      9 C          63.1719   88.6657   12.2027 C.2     1  UNL1        0.0077
     10 C          62.4009   87.7879   11.2620 C.2     1  UNL1        0.0173
     11 N          64.4883   85.2270   15.7529 N.pl3   1  UNL1       -0.3274
     12 C          63.9113   84.7657   14.4475 C.ar    1  UNL1        0.2137
     13 N          63.9035   83.3053   14.1052 N.ar    1  UNL1       -0.2125
     14 C          63.3264   82.8441   12.7998 C.ar    1  UNL1        0.1034
     15 C          62.7571   83.8433   11.8366 C.ar    1  UNL1        0.0400
     16 C          62.7649   85.3036   12.1788 C.ar    1  UNL1        0.0872
     17 N          63.3420   85.7649   13.4844 N.ar    1  UNL1       -0.2139
     18 H          64.8620   84.5713   16.3851 H       1  UNL1        0.1452
     19 H          64.4934   86.1856   15.9775 H       1  UNL1        0.1452
@<TRIPOS>BOND
     1    11    12    1
     2    12    13   ar
     3    13    14   ar
     4    14    15   ar
     5    15    16   ar
     6    16     1    1
     7     1     2    2
     8     2     3    1
     9     3     4    2
    10     4     5    1
    11     5     6    1
    12     6     7    2
    13     7     8    1
    14     7     9    1
    15     9    10    2
    16    16    17   ar
    17    17    12   ar
    18    10     1    1
    19    10     4    1
    20    11    18    1
    21    11    19    1
@<TRIPOS>MOLECULE
*****
 19 21 0 0 0
SMALL
GASTEIGER

@<TRIPOS>ATOM
      1 C          62.9742   84.3613   11.0335 C.2     1  UNL1        0.0381
      2 C          63.6311   83.7617    9.8257 C.2     1  UNL1        0.0999
      3 N          63.2221   84.5668    8.6280 N.2     1  UNL1       -0.2478
      4 C          62.3124   85.6640    9.0956 C.2     1  UNL1        0.0635
      5 C          61.6038   86.7623    8.3597 C.3     1  UNL1        0.0722
      6 C          60.7420   87.7336    9.1106 C.2     1  UNL1       -0.0131
      7 C          60.5887   87.6065   10.5973 C.2     1  UNL1        0.0307
      8 BR         59.7268   88.5779   11.3481 Br      1  UNL1       -0.0493
      9 C          61.2973   86.5082   11.3332 C.2     1  UNL1        0.0077
     10 C          62.1592   85.5370   10.5823 C.2     1  UNL1        0.0173
     11 N          64.5142   85.1296   15.9364 N.pl3   1  UNL1       -0.3274
     12 C          63.8786   84.2554   14.8963 C.ar    1  UNL1        0.2137
     13 N          63.3774   82.8912   15.2675 N.ar    1  UNL1       -0.2125
     14 C          62.7418   82.0171   14.2274 C.ar    1  UNL1        0.1034
     15 C          62.6074   82.5071   12.8161 C.ar    1  UNL1        0.0400
     16 C          63.1086   83.8712   12.4449 C.ar    1  UNL1        0.0872
     17 N          63.7442   84.7454   13.4850 N.ar    1  UNL1       -0.2139
     18 H          64.6025   84.8080   16.8627 H       1  UNL1        0.1452
     19 H          64.8432   86.0249   15.6927 H       1  UNL1        0.1452
@<TRIPOS>BOND
     1    11    12    1
     2    12    13   ar
     3    13    14   ar
     4    14    15   ar
     5    15    16   ar
     6    16     1    1
     7     1     2    2
     8     2     3    1
     9     3     4    2
    10     4     5    1
    11     5     6    1
    12     6     7    2
    13     7     8    1
    14     7     9    1
    15     9    10    2
    16    16    17   ar
    17    17    12   ar
    18    10     1    1
    19    10     4    1
    20    11    18    1
    21    11    19    1
@<TRIPOS>MOLECULE
*****
 19 21 0 0 0
SMALL
GASTEIGER

@<TRIPOS>ATOM
      1 C          62.4422   89.7266   11.5009 C.2     1  UNL1        0.0381
      2 C          61.7058   90.4918   10.4416 C.2     1  UNL1        0.0999
      3 N          61.0720   89.5013    9.5104 N.2     1  UNL1       -0.2478
      4 C          61.4166   88.1239    9.9942 C.2     1  UNL1        0.0635
      5 C          61.0687   86.7609    9.4734 C.3     1  UNL1        0.0722
      6 C          61.5677   85.5372   10.1829 C.2     1  UNL1       -0.0131
      7 C          62.4146   85.6764   11.4131 C.2     1  UNL1        0.0307
      8 BR         62.9136   84.4526   12.1226 Br      1  UNL1       -0.0493
      9 C          62.7625   87.0394   11.9339 C.2     1  UNL1        0.0077
     10 C          62.2635   88.2632   11.2244 C.2     1  UNL1        0.0173
     11 N          63.2552   90.2600   16.6053 N.pl3   1  UNL1       -0.3274
     12 C          63.6272   90.5872   15.1895 C.ar    1  UNL1        0.2137
     13 N          64.7776   91.5083   14.9100 N.ar    1  UNL1       -0.2125
     14 C          65.1496   91.8354   13.4942 C.ar    1  UNL1        0.1034
     15 C          64.3711   91.2415   12.3578 C.ar    1  UNL1        0.0400
     16 C          63.2207   90.3205   12.6372 C.ar    1  UNL1        0.0872
     17 N          62.8487   89.9933   14.0531 N.ar    1  UNL1       -0.2139
     18 H          63.7661   90.6498   17.3511 H       1  UNL1        0.1452
     19 H          62.5001   89.6555   16.7886 H       1  UNL1        0.1452
@<TRIPOS>BOND
     1    11    12    1
     2    12    13   ar
     3    13    14   ar
     4    14    15   ar
     5    15    16   ar
     6    16     1    1
     7     1     2    2
     8     2     3    1
     9     3     4    2
    10     4     5    1
    11     5     6    1
    12     6     7    2
    13     7     8    1
    14     7     9    1
    15     9    10    2
    16    16    17   ar
    17    17    12   ar
    18    10     1    1
    19    10     4    1
    20    11    18    1
    21    11    19    1
@<TRIPOS>MOLECULE
*****
 19 21 0 0 0
SMALL
GASTEIGER

@<TRIPOS>ATOM
      1 C          62.7937   84.9233   10.2542 C.2     1  UNL1        0.0381
      2 C          63.5834   84.1233    9.2611 C.2     1  UNL1        0.0999
      3 N          64.3146   83.0480   10.0088 N.2     1  UNL1       -0.2478
      4 C          63.9767   83.1834   11.4640 C.2     1  UNL1        0.0635
      5 C          64.4035   82.4011   12.6705 C.3     1  UNL1        0.0722
      6 C          63.8903   82.7778   14.0287 C.2     1  UNL1       -0.0131
      7 C          62.9503   83.9368   14.1804 C.2     1  UNL1        0.0307
      8 BR         62.4371   84.3135   15.5386 Br      1  UNL1       -0.0493
      9 C          62.5235   84.7192   12.9738 C.2     1  UNL1        0.0077
     10 C          63.0367   84.3424   11.6157 C.2     1  UNL1        0.0173
     11 N          58.8275   86.9993    7.6161 N.pl3   1  UNL1       -0.3274
     12 C          59.9319   87.1361    8.6218 C.ar    1  UNL1        0.2137
     13 N          60.1578   88.4474    9.3142 N.ar    1  UNL1       -0.2125
     14 C          61.2623   88.5840   10.3199 C.ar    1  UNL1        0.1034
     15 C          62.1409   87.4093   10.6332 C.ar    1  UNL1        0.0400
     16 C          61.9151   86.0980    9.9409 C.ar    1  UNL1        0.0872
     17 N          60.8105   85.9614    8.9351 N.ar    1  UNL1       -0.2139
     18 H          58.2508   87.7703    7.4104 H       1  UNL1        0.1452
     19 H          58.6793   86.1386    7.1617 H       1  UNL1        0.1452
@<TRIPOS>BOND
     1    11    12    1
     2    12    13   ar
     3    13    14   ar
     4    14    15   ar
     5    15    16   ar
     6    16     1    1
     7     1     2    2
     8     2     3    1
     9     3     4    2
    10     4     5    1
    11     5     6    1
    12     6     7    2
    13     7     8    1
    14     7     9    1
    15     9    10    2
    16    16    17   ar
    17    17    12   ar
    18    10     1    1
    19    10     4    1
    20    11    18    1
    21    11    19    1
