@<TRIPOS>MOLECULE
*****
 26 28 0 0 0
SMALL
GASTEIGER

@<TRIPOS>ATOM
      1 C          63.3857   90.3216   14.2762 C.3     1  UNL1        0.1893
      2 C          63.0763   90.0641   12.8312 C.ar    1  UNL1        0.1103
      3 C          63.3626   90.9935   11.6891 C.ar    1  UNL1        0.0396
      4 C          62.8896   90.3359   10.4266 C.ar    1  UNL1        0.1017
      5 N          62.3110   89.0001   10.7884 N.ar    1  UNL1       -0.2284
      6 N          62.4265   88.8322   12.2745 N.ar    1  UNL1       -0.1669
      7 C          61.7207   88.0067    9.8321 C.ar    1  UNL1        0.0852
      8 C          60.2997   88.1574    9.3763 C.ar    1  UNL1        0.0216
      9 C          59.7094   87.1640    8.4200 C.ar    1  UNL1        0.0335
     10 C          60.5402   86.0198    7.9194 C.ar    1  UNL1        0.1675
     11 F          59.9499   85.0263    6.9631 F       1  UNL1       -0.2018
     12 C          61.9613   85.8690    8.3752 C.ar    1  UNL1        0.1689
     13 F          62.7921   84.7247    7.8747 F       1  UNL1       -0.2017
     14 C          62.5516   86.8625    9.3316 C.ar    1  UNL1        0.0511
     15 O          62.5879   89.6385   15.3472 O.3     1  UNL1       -0.3458
     16 C          63.2563   89.2020   16.6171 C.3     1  UNL1        0.1600
     17 C          62.9976   87.8311   17.1681 C.3     1  UNL1        0.1047
     18 C          62.7852   81.7835   13.9075 C.3     1  UNL1        0.0948
     19 C          63.5951   83.0169   13.6374 C.2     1  UNL1        0.2262
     20 O          64.5543   83.0466   12.4846 O.2     1  UNL1       -0.2749
     21 N          63.4457   84.2204   14.5200 N.am    1  UNL1       -0.2767
     22 C          62.4865   84.1907   15.6728 C.3     1  UNL1        0.1107
     23 C          62.3371   85.3942   16.5555 C.3     1  UNL1        0.0940
     24 N          63.1469   86.6275   16.2854 N.3     1  UNL1       -0.2676
     25 C          64.1062   86.6573   15.1326 C.3     1  UNL1        0.0940
     26 C          64.2555   85.4538   14.2499 C.3     1  UNL1        0.1107
@<TRIPOS>BOND
     1    18    19    1
     2    19    20    2
     3    19    21   am
     4    21    22    1
     5    22    23    1
     6    23    24    1
     7    24    17    1
     8    17    16    1
     9    16    15    1
    10    15     1    1
    11     1     2    1
    12     2     3   ar
    13     3     4   ar
    14     4     5   ar
    15     5     7    1
    16     7     8   ar
    17     8     9   ar
    18     9    10   ar
    19    10    11    1
    20    10    12   ar
    21    12    13    1
    22    12    14   ar
    23     5     6   ar
    24    24    25    1
    25    25    26    1
    26    26    21    1
    27     6     2   ar
    28    14     7   ar
@<TRIPOS>MOLECULE
*****
 26 28 0 0 0
SMALL
GASTEIGER

@<TRIPOS>ATOM
      1 C          63.3738   90.1512   14.6681 C.3     1  UNL1        0.1893
      2 C          64.5559   90.9129   14.1461 C.ar    1  UNL1        0.1103
      3 C          65.8985   91.0184   14.8068 C.ar    1  UNL1        0.0396
      4 C          66.7753   91.8735   13.9408 C.ar    1  UNL1        0.1017
      5 N          65.9747   92.2964   12.7449 N.ar    1  UNL1       -0.2284
      6 N          64.6031   91.7027   12.8718 N.ar    1  UNL1       -0.1669
      7 C          66.4605   93.1612   11.6196 C.ar    1  UNL1        0.0852
      8 C          66.1797   94.6346   11.6310 C.ar    1  UNL1        0.0216
      9 C          66.6654   95.4994   10.5057 C.ar    1  UNL1        0.0335
     10 C          67.4319   94.8907    9.3691 C.ar    1  UNL1        0.1675
     11 F          67.9177   95.7555    8.2437 F       1  UNL1       -0.2018
     12 C          67.7127   93.4172    9.3577 C.ar    1  UNL1        0.1689
     13 F          68.4792   92.8085    8.2210 F       1  UNL1       -0.2017
     14 C          67.2269   92.5524   10.4830 C.ar    1  UNL1        0.0511
     15 O          63.5620   88.7823   15.2520 O.3     1  UNL1       -0.3458
     16 C          64.3187   87.7379   14.4862 C.3     1  UNL1        0.1600
     17 C          64.7037   86.4506   15.1531 C.3     1  UNL1        0.1047
     18 C          60.9156   80.8088   14.1185 C.3     1  UNL1        0.0948
     19 C          62.1544   81.2997   13.4299 C.2     1  UNL1        0.2262
     20 O          62.7559   80.5029   12.3104 O.2     1  UNL1       -0.2749
     21 N          62.7917   82.5874   13.8607 N.am    1  UNL1       -0.2767
     22 C          62.1902   83.3843   14.9801 C.3     1  UNL1        0.1107
     23 C          62.8275   84.6720   15.4109 C.3     1  UNL1        0.0940
     24 N          64.0664   85.1629   14.7223 N.3     1  UNL1       -0.2676
     25 C          64.6679   84.3661   13.6028 C.3     1  UNL1        0.0940
     26 C          64.0305   83.0783   13.1720 C.3     1  UNL1        0.1107
@<TRIPOS>BOND
     1    18    19    1
     2    19    20    2
     3    19    21   am
     4    21    22    1
     5    22    23    1
     6    23    24    1
     7    24    17    1
     8    17    16    1
     9    16    15    1
    10    15     1    1
    11     1     2    1
    12     2     3   ar
    13     3     4   ar
    14     4     5   ar
    15     5     7    1
    16     7     8   ar
    17     8     9   ar
    18     9    10   ar
    19    10    11    1
    20    10    12   ar
    21    12    13    1
    22    12    14   ar
    23     5     6   ar
    24    24    25    1
    25    25    26    1
    26    26    21    1
    27     6     2   ar
    28    14     7   ar
@<TRIPOS>MOLECULE
*****
 26 28 0 0 0
SMALL
GASTEIGER

@<TRIPOS>ATOM
      1 C          63.7470   82.1816   13.4426 C.3     1  UNL1        0.1893
      2 C          63.5344   83.0435   12.2334 C.ar    1  UNL1        0.1103
      3 C          64.1807   82.8565   10.8928 C.ar    1  UNL1        0.0396
      4 C          63.6840   83.9411    9.9834 C.ar    1  UNL1        0.1017
      5 N          62.7308   84.7984   10.7620 N.ar    1  UNL1       -0.2284
      6 N          62.6384   84.2437   12.1526 N.ar    1  UNL1       -0.1669
      7 C          61.9985   85.9996   10.2415 C.ar    1  UNL1        0.0852
      8 C          62.1672   87.3301   10.9133 C.ar    1  UNL1        0.0216
      9 C          61.4349   88.5313   10.3928 C.ar    1  UNL1        0.0335
     10 C          60.5340   88.4019    9.2005 C.ar    1  UNL1        0.1675
     11 F          59.8017   89.6032    8.6799 F       1  UNL1       -0.2018
     12 C          60.3654   87.0714    8.5287 C.ar    1  UNL1        0.1689
     13 F          59.4644   86.9421    7.3363 F       1  UNL1       -0.2017
     14 C          61.0976   85.8702    9.0492 C.ar    1  UNL1        0.0511
     15 O          63.4317   82.7151   14.8087 O.3     1  UNL1       -0.3458
     16 C          64.0506   84.0001   15.2732 C.3     1  UNL1        0.1600
     17 C          63.2489   84.9641   16.0965 C.3     1  UNL1        0.1047
     18 C          64.8447   91.3984   14.2790 C.3     1  UNL1        0.0948
     19 C          64.0861   90.8713   15.4608 C.2     1  UNL1        0.2262
     20 O          63.5368   91.8211   16.4836 O.2     1  UNL1       -0.2749
     21 N          63.8768   89.3945   15.6197 N.am    1  UNL1       -0.2767
     22 C          64.4261   88.4448   14.5969 C.3     1  UNL1        0.1107
     23 C          64.2168   86.9680   14.7558 C.3     1  UNL1        0.0940
     24 N          63.4582   86.4409   15.9376 N.3     1  UNL1       -0.2676
     25 C          62.9089   87.3907   16.9604 C.3     1  UNL1        0.0940
     26 C          63.1182   88.8675   16.8015 C.3     1  UNL1        0.1107
@<TRIPOS>BOND
     1    18    19    1
     2    19    20    2
     3    19    21   am
     4    21    22    1
     5    22    23    1
     6    23    24    1
     7    24    17    1
     8    17    16    1
     9    16    15    1
    10    15     1    1
    11     1     2    1
    12     2     3   ar
    13     3     4   ar
    14     4     5   ar
    15     5     7    1
    16     7     8   ar
    17     8     9   ar
    18     9    10   ar
    19    10    11    1
    20    10    12   ar
    21    12    13    1
    22    12    14   ar
    23     5     6   ar
    24    24    25    1
    25    25    26    1
    26    26    21    1
    27     6     2   ar
    28    14     7   ar
@<TRIPOS>MOLECULE
*****
 26 28 0 0 0
SMALL
GASTEIGER

@<TRIPOS>ATOM
      1 C          63.5111   90.5648   14.3733 C.3     1  UNL1        0.1893
      2 C          63.2067   90.3141   12.9260 C.ar    1  UNL1        0.1103
      3 C          63.6278   91.1775   11.7740 C.ar    1  UNL1        0.0396
      4 C          63.1090   90.5530   10.5127 C.ar    1  UNL1        0.1017
      5 N          62.3673   89.3035   10.8852 N.ar    1  UNL1       -0.2284
      6 N          62.4277   89.1559   12.3767 N.ar    1  UNL1       -0.1669
      7 C          61.6850   88.3663    9.9334 C.ar    1  UNL1        0.0852
      8 C          62.1928   86.9647    9.7676 C.ar    1  UNL1        0.0216
      9 C          61.5105   86.0274    8.8158 C.ar    1  UNL1        0.0335
     10 C          60.3204   86.4919    8.0297 C.ar    1  UNL1        0.1675
     11 F          59.6380   85.5546    7.0778 F       1  UNL1       -0.2018
     12 C          59.8126   87.8936    8.1954 C.ar    1  UNL1        0.1689
     13 F          58.6224   88.3580    7.4093 F       1  UNL1       -0.2017
     14 C          60.4949   88.8308    9.1473 C.ar    1  UNL1        0.0511
     15 O          62.8377   89.7456   15.4342 O.3     1  UNL1       -0.3458
     16 C          63.4692   88.4716   15.9117 C.3     1  UNL1        0.1600
     17 C          64.3369   87.6717   14.9859 C.3     1  UNL1        0.1047
     18 C          62.4354   81.7372   12.0849 C.3     1  UNL1        0.0948
     19 C          62.7800   82.0692   13.5064 C.2     1  UNL1        0.2262
     20 O          62.7353   81.0007   14.5582 O.2     1  UNL1       -0.2749
     21 N          63.1692   83.4699   13.8763 N.am    1  UNL1       -0.2767
     22 C          63.2138   84.5384   12.8246 C.3     1  UNL1        0.1107
     23 C          63.6031   85.9390   13.1945 C.3     1  UNL1        0.0940
     24 N          63.9477   86.2711   14.6160 N.3     1  UNL1       -0.2676
     25 C          63.9030   85.2025   15.6678 C.3     1  UNL1        0.0940
     26 C          63.5138   83.8019   15.2979 C.3     1  UNL1        0.1107
@<TRIPOS>BOND
     1    18    19    1
     2    19    20    2
     3    19    21   am
     4    21    22    1
     5    22    23    1
     6    23    24    1
     7    24    17    1
     8    17    16    1
     9    16    15    1
    10    15     1    1
    11     1     2    1
    12     2     3   ar
    13     3     4   ar
    14     4     5   ar
    15     5     7    1
    16     7     8   ar
    17     8     9   ar
    18     9    10   ar
    19    10    11    1
    20    10    12   ar
    21    12    13    1
    22    12    14   ar
    23     5     6   ar
    24    24    25    1
    25    25    26    1
    26    26    21    1
    27     6     2   ar
    28    14     7   ar
@<TRIPOS>MOLECULE
*****
 26 28 0 0 0
SMALL
GASTEIGER

@<TRIPOS>ATOM
      1 C          63.8867   90.6155   15.4249 C.3     1  UNL1        0.1893
      2 C          64.8712   91.5586   14.7995 C.ar    1  UNL1        0.1103
      3 C          65.9654   92.2935   15.5156 C.ar    1  UNL1        0.0396
      4 C          66.7049   93.1215   14.5070 C.ar    1  UNL1        0.1017
      5 N          66.0679   92.8984   13.1674 N.ar    1  UNL1       -0.2284
      6 N          64.9346   91.9325   13.3483 N.ar    1  UNL1       -0.1669
      7 C          66.4899   93.5302   11.8741 C.ar    1  UNL1        0.0852
      8 C          66.2312   94.9877   11.6319 C.ar    1  UNL1        0.0216
      9 C          66.6533   95.6195   10.3386 C.ar    1  UNL1        0.0335
     10 C          67.3340   94.7938    9.2876 C.ar    1  UNL1        0.1675
     11 F          67.7561   95.4257    7.9942 F       1  UNL1       -0.2018
     12 C          67.5927   93.3363    9.5298 C.ar    1  UNL1        0.1689
     13 F          68.2735   92.5106    8.4786 F       1  UNL1       -0.2017
     14 C          67.1707   92.7044   10.8231 C.ar    1  UNL1        0.0511
     15 O          63.1750   89.6033   14.5769 O.3     1  UNL1       -0.3458
     16 C          63.9325   88.4467   13.9950 C.3     1  UNL1        0.1600
     17 C          64.3459   87.3030   14.8730 C.3     1  UNL1        0.1047
     18 C          62.6188   81.3681   11.8658 C.3     1  UNL1        0.0948
     19 C          63.0435   81.6690   13.2726 C.2     1  UNL1        0.2262
     20 O          63.1426   80.5614   14.2793 O.2     1  UNL1       -0.2749
     21 N          63.3691   83.0775   13.6727 N.am    1  UNL1       -0.2767
     22 C          63.2700   84.1851   12.6660 C.3     1  UNL1        0.1107
     23 C          63.5956   85.5936   13.0661 C.3     1  UNL1        0.0940
     24 N          64.0203   85.8945   14.4729 N.3     1  UNL1       -0.2676
     25 C          64.1194   84.7870   15.4795 C.3     1  UNL1        0.0940
     26 C          63.7938   83.3785   15.0794 C.3     1  UNL1        0.1107
@<TRIPOS>BOND
     1    18    19    1
     2    19    20    2
     3    19    21   am
     4    21    22    1
     5    22    23    1
     6    23    24    1
     7    24    17    1
     8    17    16    1
     9    16    15    1
    10    15     1    1
    11     1     2    1
    12     2     3   ar
    13     3     4   ar
    14     4     5   ar
    15     5     7    1
    16     7     8   ar
    17     8     9   ar
    18     9    10   ar
    19    10    11    1
    20    10    12   ar
    21    12    13    1
    22    12    14   ar
    23     5     6   ar
    24    24    25    1
    25    25    26    1
    26    26    21    1
    27     6     2   ar
    28    14     7   ar
@<TRIPOS>MOLECULE
*****
 26 28 0 0 0
SMALL
GASTEIGER

@<TRIPOS>ATOM
      1 C          64.2160   88.0897   14.9306 C.3     1  UNL1        0.1893
      2 C          64.0575   86.6054   14.7836 C.ar    1  UNL1        0.1103
      3 C          64.0506   85.6044   15.9007 C.ar    1  UNL1        0.0396
      4 C          63.8668   84.2418   15.3011 C.ar    1  UNL1        0.1017
      5 N          63.7601   84.4006   13.8134 N.ar    1  UNL1       -0.2284
      6 N          63.8779   85.8614   13.4935 N.ar    1  UNL1       -0.1669
      7 C          63.5691   83.2932   12.8199 C.ar    1  UNL1        0.0852
      8 C          63.9435   83.5022   11.3826 C.ar    1  UNL1        0.0216
      9 C          63.7525   82.3947   10.3891 C.ar    1  UNL1        0.0335
     10 C          63.1871   81.0782   10.8330 C.ar    1  UNL1        0.1675
     11 F          62.9960   79.9707    9.8395 F       1  UNL1       -0.2018
     12 C          62.8126   80.8692   12.2704 C.ar    1  UNL1        0.1689
     13 F          62.2472   79.5526   12.7143 F       1  UNL1       -0.2017
     14 C          63.0036   81.9767   13.2639 C.ar    1  UNL1        0.0511
     15 O          64.1685   88.9728   13.7190 O.3     1  UNL1       -0.3458
     16 C          63.1561   90.0764   13.6345 C.3     1  UNL1        0.1600
     17 C          62.8027   90.6695   12.3029 C.3     1  UNL1        0.1047
     18 C          60.3138   85.9937    7.9220 C.3     1  UNL1        0.0948
     19 C          59.8494   87.3832    8.2435 C.2     1  UNL1        0.2262
     20 O          58.6467   87.9512    7.5502 O.2     1  UNL1       -0.2749
     21 N          60.5877   88.2048    9.2584 N.am    1  UNL1       -0.2767
     22 C          61.7904   87.6368    9.9517 C.3     1  UNL1        0.1107
     23 C          62.5288   88.4584   10.9666 C.3     1  UNL1        0.0940
     24 N          62.0643   89.8480   11.2880 N.3     1  UNL1       -0.2676
     25 C          60.8616   90.4159   10.5947 C.3     1  UNL1        0.0940
     26 C          60.1233   89.5944    9.5798 C.3     1  UNL1        0.1107
@<TRIPOS>BOND
     1    18    19    1
     2    19    20    2
     3    19    21   am
     4    21    22    1
     5    22    23    1
     6    23    24    1
     7    24    17    1
     8    17    16    1
     9    16    15    1
    10    15     1    1
    11     1     2    1
    12     2     3   ar
    13     3     4   ar
    14     4     5   ar
    15     5     7    1
    16     7     8   ar
    17     8     9   ar
    18     9    10   ar
    19    10    11    1
    20    10    12   ar
    21    12    13    1
    22    12    14   ar
    23     5     6   ar
    24    24    25    1
    25    25    26    1
    26    26    21    1
    27     6     2   ar
    28    14     7   ar
@<TRIPOS>MOLECULE
*****
 26 28 0 0 0
SMALL
GASTEIGER

@<TRIPOS>ATOM
      1 C          63.4076   89.7763   16.6595 C.3     1  UNL1        0.1893
      2 C          63.2448   88.2852   16.6692 C.ar    1  UNL1        0.1103
      3 C          62.7977   87.4547   17.8355 C.ar    1  UNL1        0.0396
      4 C          62.7770   86.0190   17.4014 C.ar    1  UNL1        0.1017
      5 N          63.2113   85.9622   15.9668 N.ar    1  UNL1       -0.2284
      6 N          63.5004   87.3628   15.5143 N.ar    1  UNL1       -0.1669
      7 C          63.3349   84.7226   15.1314 C.ar    1  UNL1        0.0852
      8 C          64.4607   84.5891   14.1493 C.ar    1  UNL1        0.0216
      9 C          64.5843   83.3494   13.3139 C.ar    1  UNL1        0.0335
     10 C          63.5820   82.2432   13.4606 C.ar    1  UNL1        0.1675
     11 F          63.7055   81.0035   12.6252 F       1  UNL1       -0.2018
     12 C          62.4560   82.3767   14.4428 C.ar    1  UNL1        0.1689
     13 F          61.4537   81.2704   14.5895 F       1  UNL1       -0.2017
     14 C          62.3325   83.6164   15.2782 C.ar    1  UNL1        0.0511
     15 O          63.1899   90.5463   15.3907 O.3     1  UNL1       -0.3458
     16 C          64.2712   90.6026   14.3525 C.3     1  UNL1        0.1600
     17 C          63.9549   91.0770   12.9652 C.3     1  UNL1        0.1047
     18 C          59.8509   88.2722    8.2175 C.3     1  UNL1        0.0948
     19 C          60.6854   87.6397    9.2915 C.2     1  UNL1        0.2262
     20 O          60.7026   86.1479    9.4471 O.2     1  UNL1       -0.2749
     21 N          61.5028   88.4990   10.2099 N.am    1  UNL1       -0.2767
     22 C          61.4857   89.9908   10.0543 C.3     1  UNL1        0.1107
     23 C          62.3030   90.8501   10.9727 C.3     1  UNL1        0.0940
     24 N          63.1375   90.2176   12.0467 N.3     1  UNL1       -0.2676
     25 C          63.1547   88.7259   12.2024 C.3     1  UNL1        0.0940
     26 C          62.3373   87.8666   11.2839 C.3     1  UNL1        0.1107
@<TRIPOS>BOND
     1    18    19    1
     2    19    20    2
     3    19    21   am
     4    21    22    1
     5    22    23    1
     6    23    24    1
     7    24    17    1
     8    17    16    1
     9    16    15    1
    10    15     1    1
    11     1     2    1
    12     2     3   ar
    13     3     4   ar
    14     4     5   ar
    15     5     7    1
    16     7     8   ar
    17     8     9   ar
    18     9    10   ar
    19    10    11    1
    20    10    12   ar
    21    12    13    1
    22    12    14   ar
    23     5     6   ar
    24    24    25    1
    25    25    26    1
    26    26    21    1
    27     6     2   ar
    28    14     7   ar
@<TRIPOS>MOLECULE
*****
 26 28 0 0 0
SMALL
GASTEIGER

@<TRIPOS>ATOM
      1 C          63.4925   85.7814   16.6824 C.3     1  UNL1        0.1893
      2 C          63.5010   87.2218   16.2639 C.ar    1  UNL1        0.1103
      3 C          63.0496   88.3847   17.0969 C.ar    1  UNL1        0.0396
      4 C          63.2320   89.6338   16.2867 C.ar    1  UNL1        0.1017
      5 N          63.7960   89.2430   14.9529 N.ar    1  UNL1       -0.2284
      6 N          63.9622   87.7523   14.9388 N.ar    1  UNL1       -0.1669
      7 C          64.1344   90.1785   13.8303 C.ar    1  UNL1        0.0852
      8 C          65.2633   91.1544   13.9818 C.ar    1  UNL1        0.0216
      9 C          65.6017   92.0900   12.8592 C.ar    1  UNL1        0.0335
     10 C          64.8111   92.0495   11.5851 C.ar    1  UNL1        0.1675
     11 F          65.1494   92.9851   10.4624 F       1  UNL1       -0.2018
     12 C          63.6821   91.0735   11.4336 C.ar    1  UNL1        0.1689
     13 F          62.8915   91.0331   10.1595 F       1  UNL1       -0.2017
     14 C          63.3437   90.1380   12.5562 C.ar    1  UNL1        0.0511
     15 O          63.3052   84.7033   15.6563 O.3     1  UNL1       -0.3458
     16 C          64.4697   84.2438   14.8301 C.3     1  UNL1        0.1600
     17 C          64.2454   83.3363   13.6570 C.3     1  UNL1        0.1047
     18 C          62.6450   84.9630    7.1730 C.3     1  UNL1        0.0948
     19 C          62.2204   85.5786    8.4733 C.2     1  UNL1        0.2262
     20 O          61.2896   86.7549    8.4776 O.2     1  UNL1       -0.2749
     21 N          62.7267   85.0180    9.7692 N.am    1  UNL1       -0.2767
     22 C          63.6575   83.8418    9.7649 C.3     1  UNL1        0.1107
     23 C          64.1637   83.2812   11.0609 C.3     1  UNL1        0.0940
     24 N          63.7392   83.8969   12.3611 N.3     1  UNL1       -0.2676
     25 C          62.8084   85.0731   12.3654 C.3     1  UNL1        0.0940
     26 C          62.3021   85.6337   11.0695 C.3     1  UNL1        0.1107
@<TRIPOS>BOND
     1    18    19    1
     2    19    20    2
     3    19    21   am
     4    21    22    1
     5    22    23    1
     6    23    24    1
     7    24    17    1
     8    17    16    1
     9    16    15    1
    10    15     1    1
    11     1     2    1
    12     2     3   ar
    13     3     4   ar
    14     4     5   ar
    15     5     7    1
    16     7     8   ar
    17     8     9   ar
    18     9    10   ar
    19    10    11    1
    20    10    12   ar
    21    12    13    1
    22    12    14   ar
    23     5     6   ar
    24    24    25    1
    25    25    26    1
    26    26    21    1
    27     6     2   ar
    28    14     7   ar
@<TRIPOS>MOLECULE
*****
 26 28 0 0 0
SMALL
GASTEIGER

@<TRIPOS>ATOM
      1 C          63.7317   89.2427   13.3745 C.3     1  UNL1        0.1893
      2 C          63.8703   87.8027   13.7709 C.ar    1  UNL1        0.1103
      3 C          64.5277   87.2908   15.0182 C.ar    1  UNL1        0.0396
      4 C          64.4396   85.7935   15.0077 C.ar    1  UNL1        0.1017
      5 N          63.7278   85.3798   13.7538 N.ar    1  UNL1       -0.2284
      6 N          63.3760   86.6216   12.9895 N.ar    1  UNL1       -0.1669
      7 C          63.4215   83.9717   13.3374 C.ar    1  UNL1        0.0852
      8 C          64.0421   83.4052   12.0950 C.ar    1  UNL1        0.0216
      9 C          63.7358   81.9971   11.6786 C.ar    1  UNL1        0.0335
     10 C          62.8090   81.1555   12.5047 C.ar    1  UNL1        0.1675
     11 F          62.5026   79.7473   12.0884 F       1  UNL1       -0.2018
     12 C          62.1883   81.7220   13.7473 C.ar    1  UNL1        0.1689
     13 F          61.2614   80.8804   14.5735 F       1  UNL1       -0.2017
     14 C          62.4946   83.1302   14.1637 C.ar    1  UNL1        0.0511
     15 O          62.3808   89.8948   13.3779 O.3     1  UNL1       -0.3458
     16 C          61.7336   90.2860   12.0825 C.3     1  UNL1        0.1600
     17 C          60.5717   89.4967   11.5563 C.3     1  UNL1        0.1047
     18 C          62.8215   84.7422    7.1310 C.3     1  UNL1        0.0948
     19 C          61.4493   85.3058    7.3532 C.2     1  UNL1        0.2262
     20 O          60.2966   84.8217    6.5245 O.2     1  UNL1       -0.2749
     21 N          61.2299   86.3535    8.4039 N.am    1  UNL1       -0.2767
     22 C          62.3827   86.8377    9.2325 C.3     1  UNL1        0.1107
     23 C          62.1633   87.8854   10.2833 C.3     1  UNL1        0.0940
     24 N          60.7911   88.4490   10.5055 N.3     1  UNL1       -0.2676
     25 C          59.6383   87.9648    9.6769 C.3     1  UNL1        0.0940
     26 C          59.8577   86.9171    8.6261 C.3     1  UNL1        0.1107
@<TRIPOS>BOND
     1    18    19    1
     2    19    20    2
     3    19    21   am
     4    21    22    1
     5    22    23    1
     6    23    24    1
     7    24    17    1
     8    17    16    1
     9    16    15    1
    10    15     1    1
    11     1     2    1
    12     2     3   ar
    13     3     4   ar
    14     4     5   ar
    15     5     7    1
    16     7     8   ar
    17     8     9   ar
    18     9    10   ar
    19    10    11    1
    20    10    12   ar
    21    12    13    1
    22    12    14   ar
    23     5     6   ar
    24    24    25    1
    25    25    26    1
    26    26    21    1
    27     6     2   ar
    28    14     7   ar
