@<TRIPOS>MOLECULE
*****
 40 46 0 0 0
SMALL
GASTEIGER

@<TRIPOS>ATOM
      1 C          60.9285   86.2831    8.8762 C.ar    1  UNL1        0.0146
      2 C          61.5570   85.9159    7.5647 C.ar    1  UNL1       -0.0011
      3 C          62.7833   85.0526    7.5364 C.ar    1  UNL1        0.0014
      4 C          63.3811   84.5565    8.8196 C.ar    1  UNL1        0.0206
      5 C          62.7526   84.9237   10.1311 C.ar    1  UNL1        0.0989
      6 C          61.5263   85.7870   10.1594 C.ar    1  UNL1        0.1511
      7 O          60.8976   86.1542   11.4710 O.3     1  UNL1       -0.4678
      8 C          61.4954   85.6581   12.7541 C.3     1  UNL1        0.2510
      9 C          62.7218   84.7948   12.7258 C.ar    1  UNL1        0.1087
     10 C          63.5291   84.1619   13.8201 C.ar    1  UNL1        0.1518
     11 N          64.6567   83.4035   13.1849 N.ar    1  UNL1       -0.2192
     12 C          64.5462   83.5677   11.6980 C.ar    1  UNL1        0.1828
     13 N          63.3504   84.4276   11.4143 N.ar    1  UNL1       -0.2851
     14 C          63.2567   84.2686   15.2913 C.2     1  UNL1        0.2682
     15 O          62.9780   83.0326   16.0941 O.2     1  UNL1       -0.2682
     16 N          63.2631   85.6114   15.9597 N.am    1  UNL1       -0.2697
     17 C          63.5419   86.8475   15.1570 C.3     1  UNL1        0.1258
     18 C          63.5483   88.1903   15.8255 C.3     1  UNL1        0.1637
     19 O          63.2759   88.2970   17.2967 O.3     1  UNL1       -0.3501
     20 C          62.9971   87.0609   18.0994 C.3     1  UNL1        0.1637
     21 C          62.9908   85.7181   17.4309 C.3     1  UNL1        0.1258
     22 C          59.7021   87.1464    8.9046 C.3     1  UNL1        0.0468
     23 C          59.8369   88.6387    8.9748 C.3     1  UNL1        0.0770
     24 N          62.9877   90.4924   11.5990 N.pl3   1  UNL1       -0.3046
     25 C          61.7233   89.9611   12.2063 C.3     1  UNL1        0.1081
     26 C          60.6729   89.3431   11.3316 C.3     1  UNL1        0.0938
     27 N          60.8871   89.2566    9.8495 N.3     1  UNL1       -0.2695
     28 C          62.1516   89.7879    9.2421 C.3     1  UNL1        0.0938
     29 C          63.2018   90.4058   10.1169 C.3     1  UNL1        0.1081
     30 C          67.2430   95.7727   10.4766 C.3     1  UNL1        0.0521
     31 C          66.4417   94.6071   10.9759 C.ar    1  UNL1        0.0593
     32 C          65.3915   93.9892   10.1011 C.ar    1  UNL1        0.0148
     33 C          64.5902   92.8236   10.6004 C.ar    1  UNL1        0.0039
     34 C          64.8392   92.2759   11.9744 C.ar    1  UNL1        0.0310
     35 C          64.0379   91.1102   12.4737 C.ar    1  UNL1        0.0493
     36 C          64.2869   90.5625   13.8478 C.ar    1  UNL1        0.0146
     37 C          65.3371   91.1804   14.7225 C.ar    1  UNL1        0.0028
     38 C          66.1384   92.3460   14.2233 C.ar    1  UNL1        0.0192
     39 C          65.8894   92.8938   12.8492 C.ar    1  UNL1        0.0821
     40 N          66.6907   94.0594   12.3500 N.ar    1  UNL1       -0.2496
@<TRIPOS>BOND
     1    30    31    1
     2    31    32   ar
     3    32    33   ar
     4    33    34   ar
     5    34    35   ar
     6    35    24    1
     7    24    25    1
     8    25    26    1
     9    26    27    1
    10    27    23    1
    11    23    22    1
    12    22     1    1
    13     1     2   ar
    14     2     3   ar
    15     3     4   ar
    16     4     5   ar
    17     5     6   ar
    18     6     7    1
    19     7     8    1
    20     8     9    1
    21     9    10   ar
    22    10    14    1
    23    14    15    2
    24    14    16   am
    25    16    17    1
    26    17    18    1
    27    18    19    1
    28    19    20    1
    29    20    21    1
    30    10    11   ar
    31    11    12   ar
    32    12    13   ar
    33    27    28    1
    34    28    29    1
    35    35    36   ar
    36    36    37   ar
    37    37    38   ar
    38    38    39   ar
    39    39    40   ar
    40    40    31   ar
    41    39    34   ar
    42    29    24    1
    43     6     1   ar
    44    13     9   ar
    45    13     5    1
    46    21    16    1
@<TRIPOS>MOLECULE
*****
 40 46 0 0 0
SMALL
GASTEIGER

@<TRIPOS>ATOM
      1 C          60.0982   88.9560    8.3223 C.ar    1  UNL1        0.0146
      2 C          59.8435   87.5677    7.8147 C.ar    1  UNL1       -0.0011
      3 C          60.4410   86.3886    8.5237 C.ar    1  UNL1        0.0014
      4 C          61.2933   86.5978    9.7401 C.ar    1  UNL1        0.0206
      5 C          61.5481   87.9862   10.2477 C.ar    1  UNL1        0.0989
      6 C          60.9505   89.1652    9.5387 C.ar    1  UNL1        0.1511
      7 O          61.2053   90.5537   10.0463 O.3     1  UNL1       -0.4678
      8 C          62.0576   90.7629   11.2627 C.3     1  UNL1        0.2510
      9 C          62.6552   89.5837   11.9717 C.ar    1  UNL1        0.1087
     10 C          63.5300   89.4802   13.1857 C.ar    1  UNL1        0.1518
     11 N          63.8159   88.0279   13.4285 N.ar    1  UNL1       -0.2192
     12 C          63.1178   87.2338   12.3645 C.ar    1  UNL1        0.1828
     13 N          62.4004   88.1954   11.4641 N.ar    1  UNL1       -0.2851
     14 C          64.0309   90.6276   14.0119 C.2     1  UNL1        0.2682
     15 O          63.5518   90.8015   15.4226 O.2     1  UNL1       -0.2682
     16 N          65.0110   91.6011   13.4273 N.am    1  UNL1       -0.2697
     17 C          65.4902   91.4272   12.0166 C.3     1  UNL1        0.1258
     18 C          66.4702   92.4008   11.4320 C.3     1  UNL1        0.1637
     19 O          66.9712   93.5481   12.2582 O.3     1  UNL1       -0.3501
     20 C          66.4920   93.7220   13.6689 C.3     1  UNL1        0.1637
     21 C          65.5120   92.7484   14.2535 C.3     1  UNL1        0.1258
     22 C          59.5007   90.1352    7.6133 C.3     1  UNL1        0.0468
     23 C          59.0518   90.0049    6.1880 C.3     1  UNL1        0.0770
     24 N          60.9715   92.5171    2.9859 N.pl3   1  UNL1       -0.3046
     25 C          59.5198   92.7025    3.3150 C.3     1  UNL1        0.1081
     26 C          58.8799   91.8650    4.3824 C.3     1  UNL1        0.0938
     27 N          59.6917   90.8423    5.1206 N.3     1  UNL1       -0.2695
     28 C          61.1434   90.6569    4.7915 C.3     1  UNL1        0.0938
     29 C          61.7832   91.4943    3.7241 C.3     1  UNL1        0.1081
     30 C          59.2608   93.4900   -3.6003 C.3     1  UNL1        0.0521
     31 C          59.8485   93.4561   -2.2206 C.ar    1  UNL1        0.0593
     32 C          59.2086   92.6187   -1.1532 C.ar    1  UNL1        0.0148
     33 C          59.7962   92.5848    0.2265 C.ar    1  UNL1        0.0039
     34 C          61.0237   93.3884    0.5388 C.ar    1  UNL1        0.0310
     35 C          61.6113   93.3545    1.9185 C.ar    1  UNL1        0.0493
     36 C          62.8389   94.1581    2.2308 C.ar    1  UNL1        0.0146
     37 C          63.4787   94.9955    1.1635 C.ar    1  UNL1        0.0028
     38 C          62.8911   95.0293   -0.2162 C.ar    1  UNL1        0.0192
     39 C          61.6636   94.2258   -0.5286 C.ar    1  UNL1        0.0821
     40 N          61.0760   94.2597   -1.9083 N.ar    1  UNL1       -0.2496
@<TRIPOS>BOND
     1    30    31    1
     2    31    32   ar
     3    32    33   ar
     4    33    34   ar
     5    34    35   ar
     6    35    24    1
     7    24    25    1
     8    25    26    1
     9    26    27    1
    10    27    23    1
    11    23    22    1
    12    22     1    1
    13     1     2   ar
    14     2     3   ar
    15     3     4   ar
    16     4     5   ar
    17     5     6   ar
    18     6     7    1
    19     7     8    1
    20     8     9    1
    21     9    10   ar
    22    10    14    1
    23    14    15    2
    24    14    16   am
    25    16    17    1
    26    17    18    1
    27    18    19    1
    28    19    20    1
    29    20    21    1
    30    10    11   ar
    31    11    12   ar
    32    12    13   ar
    33    27    28    1
    34    28    29    1
    35    35    36   ar
    36    36    37   ar
    37    37    38   ar
    38    38    39   ar
    39    39    40   ar
    40    40    31   ar
    41    39    34   ar
    42    29    24    1
    43     6     1   ar
    44    13     9   ar
    45    13     5    1
    46    21    16    1
@<TRIPOS>MOLECULE
*****
 40 46 0 0 0
SMALL
GASTEIGER

@<TRIPOS>ATOM
      1 C          63.1161   84.2111   14.9790 C.ar    1  UNL1        0.0146
      2 C          64.1939   83.2219   15.3103 C.ar    1  UNL1       -0.0011
      3 C          64.9569   82.5472   14.2091 C.ar    1  UNL1        0.0014
      4 C          64.6420   82.8617   12.7766 C.ar    1  UNL1        0.0206
      5 C          63.5642   83.8509   12.4453 C.ar    1  UNL1        0.0989
      6 C          62.8012   84.5256   13.5465 C.ar    1  UNL1        0.1511
      7 O          61.7233   85.5148   13.2152 O.3     1  UNL1       -0.4678
      8 C          61.4085   85.8292   11.7827 C.3     1  UNL1        0.2510
      9 C          62.1715   85.1545   10.6815 C.ar    1  UNL1        0.1087
     10 C          62.0845   85.2624    9.1880 C.ar    1  UNL1        0.1518
     11 N          63.1086   84.3398    8.5962 N.ar    1  UNL1       -0.2192
     12 C          63.8285   83.6618    9.7240 C.ar    1  UNL1        0.1828
     13 N          63.2493   84.1653   11.0128 N.ar    1  UNL1       -0.2851
     14 C          61.1393   86.1388    8.4209 C.2     1  UNL1        0.2682
     15 O          60.3695   85.5781    7.2621 O.2     1  UNL1       -0.2682
     16 N          60.9640   87.5762    8.8127 N.am    1  UNL1       -0.2697
     17 C          61.7338   88.1370    9.9715 C.3     1  UNL1        0.1258
     18 C          61.5585   89.5743   10.3632 C.3     1  UNL1        0.1637
     19 O          60.6134   90.4508    9.5961 O.3     1  UNL1       -0.3501
     20 C          59.8436   89.8899    8.4373 C.3     1  UNL1        0.1637
     21 C          60.0189   88.4526    8.0456 C.3     1  UNL1        0.1258
     22 C          62.3530   84.8859   16.0801 C.3     1  UNL1        0.0468
     23 C          62.9580   86.0497   16.8078 C.3     1  UNL1        0.0770
     24 N          64.3295   89.6705   14.5145 N.pl3   1  UNL1       -0.3046
     25 C          64.7076   88.2973   14.0442 C.3     1  UNL1        0.1081
     26 C          64.2505   87.0903   14.8086 C.3     1  UNL1        0.0938
     27 N          63.4151   87.2566   16.0433 N.3     1  UNL1       -0.2695
     28 C          63.0370   88.6299   16.5136 C.3     1  UNL1        0.0938
     29 C          63.4942   89.8368   15.7492 C.3     1  UNL1        0.1081
     30 C          69.0935   94.3984   15.9980 C.3     1  UNL1        0.0521
     31 C          68.0168   93.5181   15.4360 C.ar    1  UNL1        0.0593
     32 C          67.5596   92.3112   16.2005 C.ar    1  UNL1        0.0148
     33 C          66.4829   91.4310   15.6385 C.ar    1  UNL1        0.0039
     34 C          65.8634   91.7576   14.3120 C.ar    1  UNL1        0.0310
     35 C          64.7866   90.8773   13.7501 C.ar    1  UNL1        0.0493
     36 C          64.1671   91.2040   12.4236 C.ar    1  UNL1        0.0146
     37 C          64.6243   92.4109   11.6591 C.ar    1  UNL1        0.0028
     38 C          65.7010   93.2912   12.2211 C.ar    1  UNL1        0.0192
     39 C          66.3205   92.9645   13.5475 C.ar    1  UNL1        0.0821
     40 N          67.3972   93.8448   14.1095 N.ar    1  UNL1       -0.2496
@<TRIPOS>BOND
     1    30    31    1
     2    31    32   ar
     3    32    33   ar
     4    33    34   ar
     5    34    35   ar
     6    35    24    1
     7    24    25    1
     8    25    26    1
     9    26    27    1
    10    27    23    1
    11    23    22    1
    12    22     1    1
    13     1     2   ar
    14     2     3   ar
    15     3     4   ar
    16     4     5   ar
    17     5     6   ar
    18     6     7    1
    19     7     8    1
    20     8     9    1
    21     9    10   ar
    22    10    14    1
    23    14    15    2
    24    14    16   am
    25    16    17    1
    26    17    18    1
    27    18    19    1
    28    19    20    1
    29    20    21    1
    30    10    11   ar
    31    11    12   ar
    32    12    13   ar
    33    27    28    1
    34    28    29    1
    35    35    36   ar
    36    36    37   ar
    37    37    38   ar
    38    38    39   ar
    39    39    40   ar
    40    40    31   ar
    41    39    34   ar
    42    29    24    1
    43     6     1   ar
    44    13     9   ar
    45    13     5    1
    46    21    16    1
@<TRIPOS>MOLECULE
*****
 40 46 0 0 0
SMALL
GASTEIGER

@<TRIPOS>ATOM
      1 C          59.5556   90.4942    5.8058 C.ar    1  UNL1        0.0146
      2 C          58.0680   90.5498    5.9895 C.ar    1  UNL1       -0.0011
      3 C          57.2248   91.3506    5.0420 C.ar    1  UNL1        0.0014
      4 C          57.8693   92.0957    3.9108 C.ar    1  UNL1        0.0206
      5 C          59.3569   92.0401    3.7272 C.ar    1  UNL1        0.0989
      6 C          60.2001   91.2394    4.6747 C.ar    1  UNL1        0.1511
      7 O          61.6878   91.1838    4.4911 O.3     1  UNL1       -0.4678
      8 C          62.3323   91.9289    3.3600 C.3     1  UNL1        0.2510
      9 C          61.4890   92.7297    2.4125 C.ar    1  UNL1        0.1087
     10 C          61.8396   93.5613    1.2144 C.ar    1  UNL1        0.1518
     11 N          60.5686   94.1309    0.6576 N.ar    1  UNL1       -0.2192
     12 C          59.4325   93.6513    1.5115 C.ar    1  UNL1        0.1828
     13 N          60.0014   92.7853    2.5961 N.ar    1  UNL1       -0.2851
     14 C          63.2190   93.7842    0.6690 C.2     1  UNL1        0.2682
     15 O          64.3726   92.9834    1.1962 O.2     1  UNL1       -0.2682
     16 N          63.4449   94.8081   -0.4038 N.am    1  UNL1       -0.2697
     17 C          62.2914   95.6090   -0.9310 C.3     1  UNL1        0.1258
     18 C          62.5174   96.6329   -2.0038 C.3     1  UNL1        0.1637
     19 O          63.8968   96.8558   -2.5492 O.3     1  UNL1       -0.3501
     20 C          65.0502   96.0549   -2.0219 C.3     1  UNL1        0.1637
     21 C          64.8243   95.0310   -0.9492 C.3     1  UNL1        0.1258
     22 C          60.3989   89.6935    6.7534 C.3     1  UNL1        0.0468
     23 C          59.7489   88.8939    7.8434 C.3     1  UNL1        0.0770
     24 N          62.1917   87.4460   11.3343 N.pl3   1  UNL1       -0.3046
     25 C          62.3493   88.8539   10.8412 C.3     1  UNL1        0.1081
     26 C          61.5350   89.3365    9.6775 C.3     1  UNL1        0.0938
     27 N          60.5632   88.4113    9.0070 N.3     1  UNL1       -0.2695
     28 C          60.4057   87.0034    9.5002 C.3     1  UNL1        0.0938
     29 C          61.2199   86.5208   10.6638 C.3     1  UNL1        0.1081
     30 C          63.6786   81.0784   13.4537 C.3     1  UNL1        0.0521
     31 C          63.5105   82.5497   13.2148 C.ar    1  UNL1        0.0593
     32 C          62.6962   83.0322   12.0512 C.ar    1  UNL1        0.0148
     33 C          62.5281   84.5035   11.8122 C.ar    1  UNL1        0.0039
     34 C          63.1741   85.4922   12.7369 C.ar    1  UNL1        0.0310
     35 C          63.0060   86.9635   12.4979 C.ar    1  UNL1        0.0493
     36 C          63.6521   87.9521   13.4227 C.ar    1  UNL1        0.0146
     37 C          64.4664   87.4696   14.5863 C.ar    1  UNL1        0.0028
     38 C          64.6345   85.9983   14.8252 C.ar    1  UNL1        0.0192
     39 C          63.9884   85.0096   13.9006 C.ar    1  UNL1        0.0821
     40 N          64.1566   83.5384   14.1395 N.ar    1  UNL1       -0.2496
@<TRIPOS>BOND
     1    30    31    1
     2    31    32   ar
     3    32    33   ar
     4    33    34   ar
     5    34    35   ar
     6    35    24    1
     7    24    25    1
     8    25    26    1
     9    26    27    1
    10    27    23    1
    11    23    22    1
    12    22     1    1
    13     1     2   ar
    14     2     3   ar
    15     3     4   ar
    16     4     5   ar
    17     5     6   ar
    18     6     7    1
    19     7     8    1
    20     8     9    1
    21     9    10   ar
    22    10    14    1
    23    14    15    2
    24    14    16   am
    25    16    17    1
    26    17    18    1
    27    18    19    1
    28    19    20    1
    29    20    21    1
    30    10    11   ar
    31    11    12   ar
    32    12    13   ar
    33    27    28    1
    34    28    29    1
    35    35    36   ar
    36    36    37   ar
    37    37    38   ar
    38    38    39   ar
    39    39    40   ar
    40    40    31   ar
    41    39    34   ar
    42    29    24    1
    43     6     1   ar
    44    13     9   ar
    45    13     5    1
    46    21    16    1
@<TRIPOS>MOLECULE
*****
 40 46 0 0 0
SMALL
GASTEIGER

@<TRIPOS>ATOM
      1 C          60.2186   89.0740    8.5881 C.ar    1  UNL1        0.0146
      2 C          60.1493   90.3993    9.2871 C.ar    1  UNL1       -0.0011
      3 C          60.7693   90.5655   10.6428 C.ar    1  UNL1        0.0014
      4 C          61.4587   89.4063   11.2994 C.ar    1  UNL1        0.0206
      5 C          61.5280   88.0810   10.6004 C.ar    1  UNL1        0.0989
      6 C          60.9079   87.9148    9.2447 C.ar    1  UNL1        0.1511
      7 O          60.9772   86.5895    8.5456 O.3     1  UNL1       -0.4678
      8 C          61.6665   85.4303    9.2023 C.3     1  UNL1        0.2510
      9 C          62.2866   85.5965   10.5580 C.ar    1  UNL1        0.1087
     10 C          63.0270   84.6417   11.4469 C.ar    1  UNL1        0.1518
     11 N          63.4153   85.3770   12.6953 N.ar    1  UNL1       -0.2192
     12 C          62.9149   86.7861   12.5780 C.ar    1  UNL1        0.1828
     13 N          62.2173   86.9218   11.2570 N.ar    1  UNL1       -0.2851
     14 C          63.3264   83.2041   11.1410 C.2     1  UNL1        0.2682
     15 O          64.1124   82.8461    9.9146 O.2     1  UNL1       -0.2682
     16 N          62.8399   82.1244   12.0617 N.am    1  UNL1       -0.2697
     17 C          62.0540   82.4823   13.2882 C.3     1  UNL1        0.1258
     18 C          61.5676   81.4025   14.2088 C.3     1  UNL1        0.1637
     19 O          61.8670   79.9649   13.9029 O.3     1  UNL1       -0.3501
     20 C          62.6530   79.6070   12.6765 C.3     1  UNL1        0.1637
     21 C          63.1394   80.6868   11.7559 C.3     1  UNL1        0.1258
     22 C          59.5985   88.9078    7.2324 C.3     1  UNL1        0.0468
     23 C          58.9208   90.0705    6.5699 C.3     1  UNL1        0.0770
     24 N          60.9817   92.2712    3.2293 N.pl3   1  UNL1       -0.3046
     25 C          61.7112   91.1993    3.9835 C.3     1  UNL1        0.1081
     26 C          61.0243   90.4657    5.0971 C.3     1  UNL1        0.0938
     27 N          59.6078   90.8041    5.4564 N.3     1  UNL1       -0.2695
     28 C          58.8783   91.8760    4.7021 C.3     1  UNL1        0.0938
     29 C          59.5652   92.6095    3.5886 C.3     1  UNL1        0.1081
     30 C          59.0505   93.4201   -3.2669 C.3     1  UNL1        0.0521
     31 C          59.7050   93.3162   -1.9213 C.ar    1  UNL1        0.0593
     32 C          59.0181   92.5827   -0.8077 C.ar    1  UNL1        0.0148
     33 C          59.6726   92.4789    0.5379 C.ar    1  UNL1        0.0039
     34 C          61.0141   93.1085    0.7701 C.ar    1  UNL1        0.0310
     35 C          61.6686   93.0047    2.1157 C.ar    1  UNL1        0.0493
     36 C          63.0102   93.6344    2.3478 C.ar    1  UNL1        0.0146
     37 C          63.6971   94.3679    1.2343 C.ar    1  UNL1        0.0028
     38 C          63.0426   94.4718   -0.1114 C.ar    1  UNL1        0.0192
     39 C          61.7011   93.8421   -0.3435 C.ar    1  UNL1        0.0821
     40 N          61.0466   93.9459   -1.6892 N.ar    1  UNL1       -0.2496
@<TRIPOS>BOND
     1    30    31    1
     2    31    32   ar
     3    32    33   ar
     4    33    34   ar
     5    34    35   ar
     6    35    24    1
     7    24    25    1
     8    25    26    1
     9    26    27    1
    10    27    23    1
    11    23    22    1
    12    22     1    1
    13     1     2   ar
    14     2     3   ar
    15     3     4   ar
    16     4     5   ar
    17     5     6   ar
    18     6     7    1
    19     7     8    1
    20     8     9    1
    21     9    10   ar
    22    10    14    1
    23    14    15    2
    24    14    16   am
    25    16    17    1
    26    17    18    1
    27    18    19    1
    28    19    20    1
    29    20    21    1
    30    10    11   ar
    31    11    12   ar
    32    12    13   ar
    33    27    28    1
    34    28    29    1
    35    35    36   ar
    36    36    37   ar
    37    37    38   ar
    38    38    39   ar
    39    39    40   ar
    40    40    31   ar
    41    39    34   ar
    42    29    24    1
    43     6     1   ar
    44    13     9   ar
    45    13     5    1
    46    21    16    1
@<TRIPOS>MOLECULE
*****
 40 46 0 0 0
SMALL
GASTEIGER

@<TRIPOS>ATOM
      1 C          63.1087   88.4762   16.5550 C.ar    1  UNL1        0.0146
      2 C          62.9008   88.1087   17.9943 C.ar    1  UNL1       -0.0011
      3 C          62.8609   86.6656   18.4015 C.ar    1  UNL1        0.0014
      4 C          63.0290   85.5901   17.3695 C.ar    1  UNL1        0.0206
      5 C          63.2370   85.9577   15.9302 C.ar    1  UNL1        0.0989
      6 C          63.2768   87.4007   15.5230 C.ar    1  UNL1        0.1511
      7 O          63.4848   87.7684   14.0836 O.3     1  UNL1       -0.4678
      8 C          63.6529   86.6929   13.0516 C.3     1  UNL1        0.2510
      9 C          63.6131   85.2497   13.4589 C.ar    1  UNL1        0.1087
     10 C          63.7477   83.9804   12.6711 C.ar    1  UNL1        0.1518
     11 N          63.6230   82.8283   13.6236 N.ar    1  UNL1       -0.2192
     12 C          63.4112   83.3856   15.0000 C.ar    1  UNL1        0.1828
     13 N          63.4051   84.8822   14.8982 N.ar    1  UNL1       -0.2851
     14 C          63.9684   83.8807   11.1908 C.2     1  UNL1        0.2682
     15 O          65.0900   83.0415   10.6545 O.2     1  UNL1       -0.2682
     16 N          63.0673   84.6203   10.2468 N.am    1  UNL1       -0.2697
     17 C          61.9457   85.4595   10.7830 C.3     1  UNL1        0.1258
     18 C          61.0447   86.1990    9.8388 C.3     1  UNL1        0.1637
     19 O          61.2653   86.0993    8.3585 O.3     1  UNL1       -0.3501
     20 C          62.3870   85.2601    7.8223 C.3     1  UNL1        0.1637
     21 C          63.2880   84.5205    8.7664 C.3     1  UNL1        0.1258
     22 C          63.1486   89.9194   16.1476 C.3     1  UNL1        0.0468
     23 C          64.4206   90.7025   16.2848 C.3     1  UNL1        0.0770
     24 N          65.8480   93.2884   12.8898 N.pl3   1  UNL1       -0.3046
     25 C          66.4069   93.4840   14.2679 C.3     1  UNL1        0.1081
     26 C          65.9311   92.6220   15.3997 C.3     1  UNL1        0.0938
     27 N          64.8964   91.5644   15.1532 N.3     1  UNL1       -0.2695
     28 C          64.3374   91.3688   13.7750 C.3     1  UNL1        0.0938
     29 C          64.8132   92.2308   12.6434 C.3     1  UNL1        0.1081
     30 C          69.6053   91.7597    7.3405 C.3     1  UNL1        0.0521
     31 C          68.7849   92.3574    8.4449 C.ar    1  UNL1        0.0593
     32 C          68.3091   91.4954    9.5765 C.ar    1  UNL1        0.0148
     33 C          67.4888   92.0931   10.6810 C.ar    1  UNL1        0.0039
     34 C          67.1442   93.5527   10.6538 C.ar    1  UNL1        0.0310
     35 C          66.3238   94.1503   11.7582 C.ar    1  UNL1        0.0493
     36 C          65.9792   95.6100   11.7310 C.ar    1  UNL1        0.0146
     37 C          66.4550   96.4719   10.5994 C.ar    1  UNL1        0.0028
     38 C          67.2754   95.8743    9.4949 C.ar    1  UNL1        0.0192
     39 C          67.6200   94.4147    9.5221 C.ar    1  UNL1        0.0821
     40 N          68.4404   93.8170    8.4177 N.ar    1  UNL1       -0.2496
@<TRIPOS>BOND
     1    30    31    1
     2    31    32   ar
     3    32    33   ar
     4    33    34   ar
     5    34    35   ar
     6    35    24    1
     7    24    25    1
     8    25    26    1
     9    26    27    1
    10    27    23    1
    11    23    22    1
    12    22     1    1
    13     1     2   ar
    14     2     3   ar
    15     3     4   ar
    16     4     5   ar
    17     5     6   ar
    18     6     7    1
    19     7     8    1
    20     8     9    1
    21     9    10   ar
    22    10    14    1
    23    14    15    2
    24    14    16   am
    25    16    17    1
    26    17    18    1
    27    18    19    1
    28    19    20    1
    29    20    21    1
    30    10    11   ar
    31    11    12   ar
    32    12    13   ar
    33    27    28    1
    34    28    29    1
    35    35    36   ar
    36    36    37   ar
    37    37    38   ar
    38    38    39   ar
    39    39    40   ar
    40    40    31   ar
    41    39    34   ar
    42    29    24    1
    43     6     1   ar
    44    13     9   ar
    45    13     5    1
    46    21    16    1
@<TRIPOS>MOLECULE
*****
 40 46 0 0 0
SMALL
GASTEIGER

@<TRIPOS>ATOM
      1 C          61.1900   86.4619    9.0190 C.ar    1  UNL1        0.0146
      2 C          61.7418   85.9982    7.7036 C.ar    1  UNL1       -0.0011
      3 C          62.8204   84.9565    7.6681 C.ar    1  UNL1        0.0014
      4 C          63.3473   84.3785    8.9481 C.ar    1  UNL1        0.0206
      5 C          62.7955   84.8422   10.2635 C.ar    1  UNL1        0.0989
      6 C          61.7168   85.8839   10.2990 C.ar    1  UNL1        0.1511
      7 O          61.1649   86.3477   11.6145 O.3     1  UNL1       -0.4678
      8 C          61.6918   85.7697   12.8945 C.3     1  UNL1        0.2510
      9 C          62.7705   84.7279   12.8590 C.ar    1  UNL1        0.1087
     10 C          63.4815   83.9819   13.9488 C.ar    1  UNL1        0.1518
     11 N          64.4728   83.0570   13.3069 N.ar    1  UNL1       -0.2192
     12 C          64.3744   83.2315   11.8204 C.ar    1  UNL1        0.1828
     13 N          63.3223   84.2642   11.5435 N.ar    1  UNL1       -0.2851
     14 C          63.2431   84.1339   15.4219 C.2     1  UNL1        0.2682
     15 O          62.9858   82.9231   16.2690 O.2     1  UNL1       -0.2682
     16 N          63.2620   85.4969   16.0479 N.am    1  UNL1       -0.2697
     17 C          63.5193   86.7079   15.2009 C.3     1  UNL1        0.1258
     18 C          63.5382   88.0708   15.8270 C.3     1  UNL1        0.1637
     19 O          63.2998   88.2229   17.3001 O.3     1  UNL1       -0.3501
     20 C          63.0425   87.0120   18.1471 C.3     1  UNL1        0.1637
     21 C          63.0236   85.6490   17.5210 C.3     1  UNL1        0.1258
     22 C          60.1113   87.5037    9.0545 C.3     1  UNL1        0.0468
     23 C          60.0300   88.4602   10.2071 C.3     1  UNL1        0.0770
     24 N          63.3819   91.3669   10.9595 N.pl3   1  UNL1       -0.3046
     25 C          62.9827   91.0301    9.5534 C.3     1  UNL1        0.1081
     26 C          61.8653   90.0612    9.3025 C.3     1  UNL1        0.0938
     27 N          61.1473   89.4291   10.4579 N.3     1  UNL1       -0.2695
     28 C          61.5466   89.7659   11.8640 C.3     1  UNL1        0.0938
     29 C          62.6638   90.7348   12.1148 C.3     1  UNL1        0.1081
     30 C          67.5939   92.0829   16.3443 C.3     1  UNL1        0.0521
     31 C          66.8202   92.1461   15.0608 C.ar    1  UNL1        0.0593
     32 C          65.7029   91.1772   14.8100 C.ar    1  UNL1        0.0148
     33 C          64.9292   91.2404   13.5265 C.ar    1  UNL1        0.0039
     34 C          65.2728   92.2726   12.4937 C.ar    1  UNL1        0.0310
     35 C          64.4991   92.3358   11.2102 C.ar    1  UNL1        0.0493
     36 C          64.8428   93.3680   10.1774 C.ar    1  UNL1        0.0146
     37 C          65.9600   94.3369   10.4282 C.ar    1  UNL1        0.0028
     38 C          66.7337   94.2736   11.7117 C.ar    1  UNL1        0.0192
     39 C          66.3901   93.2415   12.7445 C.ar    1  UNL1        0.0821
     40 N          67.1638   93.1783   14.0280 N.ar    1  UNL1       -0.2496
@<TRIPOS>BOND
     1    30    31    1
     2    31    32   ar
     3    32    33   ar
     4    33    34   ar
     5    34    35   ar
     6    35    24    1
     7    24    25    1
     8    25    26    1
     9    26    27    1
    10    27    23    1
    11    23    22    1
    12    22     1    1
    13     1     2   ar
    14     2     3   ar
    15     3     4   ar
    16     4     5   ar
    17     5     6   ar
    18     6     7    1
    19     7     8    1
    20     8     9    1
    21     9    10   ar
    22    10    14    1
    23    14    15    2
    24    14    16   am
    25    16    17    1
    26    17    18    1
    27    18    19    1
    28    19    20    1
    29    20    21    1
    30    10    11   ar
    31    11    12   ar
    32    12    13   ar
    33    27    28    1
    34    28    29    1
    35    35    36   ar
    36    36    37   ar
    37    37    38   ar
    38    38    39   ar
    39    39    40   ar
    40    40    31   ar
    41    39    34   ar
    42    29    24    1
    43     6     1   ar
    44    13     9   ar
    45    13     5    1
    46    21    16    1
@<TRIPOS>MOLECULE
*****
 40 46 0 0 0
SMALL
GASTEIGER

@<TRIPOS>ATOM
      1 C          59.3394   90.2799    5.7145 C.ar    1  UNL1        0.0146
      2 C          57.8548   90.4204    5.8761 C.ar    1  UNL1       -0.0011
      3 C          57.0938   91.3809    5.0111 C.ar    1  UNL1        0.0014
      4 C          57.8175   92.2010    3.9845 C.ar    1  UNL1        0.0206
      5 C          59.3021   92.0605    3.8229 C.ar    1  UNL1        0.0989
      6 C          60.0631   91.1000    4.6879 C.ar    1  UNL1        0.1511
      7 O          61.5478   90.9595    4.5263 O.3     1  UNL1       -0.4678
      8 C          62.2714   91.7795    3.4997 C.3     1  UNL1        0.2510
      9 C          61.5103   92.7401    2.6347 C.ar    1  UNL1        0.1087
     10 C          61.9486   93.6743    1.5461 C.ar    1  UNL1        0.1518
     11 N          60.7348   94.3922    1.0349 N.ar    1  UNL1       -0.2192
     12 C          59.5464   93.9016    1.8076 C.ar    1  UNL1        0.1828
     13 N          60.0257   92.8805    2.7963 N.ar    1  UNL1       -0.2851
     14 C          63.3539   93.8584    1.0550 C.2     1  UNL1        0.2682
     15 O          64.4670   93.0437    1.6440 O.2     1  UNL1       -0.2682
     16 N          63.6459   94.8572   -0.0254 N.am    1  UNL1       -0.2697
     17 C          62.5328   95.6720   -0.6145 C.3     1  UNL1        0.1258
     18 C          62.8250   96.6708   -1.6948 C.3     1  UNL1        0.1637
     19 O          64.2303   96.8549   -2.1860 O.3     1  UNL1       -0.3501
     20 C          65.3434   96.0401   -1.5968 C.3     1  UNL1        0.1637
     21 C          65.0512   95.0413   -0.5165 C.3     1  UNL1        0.1258
     22 C          60.1005   89.3194    6.5795 C.3     1  UNL1        0.0468
     23 C          59.5849   88.9681    7.9436 C.3     1  UNL1        0.0770
     24 N          62.3442   89.1039   11.4957 N.pl3   1  UNL1       -0.3046
     25 C          61.2724   90.1414   11.3386 C.3     1  UNL1        0.1081
     26 C          60.3526   90.0962   10.1545 C.3     1  UNL1        0.0938
     27 N          60.5047   89.0134    9.1276 N.3     1  UNL1       -0.2695
     28 C          61.5765   87.9758    9.2849 C.3     1  UNL1        0.0938
     29 C          62.4962   88.0211   10.4689 C.3     1  UNL1        0.1081
     30 C          66.7743   93.9328   13.5706 C.3     1  UNL1        0.0521
     31 C          65.8967   92.7369   13.3479 C.ar    1  UNL1        0.0593
     32 C          64.9770   92.6916   12.1639 C.ar    1  UNL1        0.0148
     33 C          64.0994   91.4957   11.9412 C.ar    1  UNL1        0.0039
     34 C          64.1415   90.3451   12.9025 C.ar    1  UNL1        0.0310
     35 C          63.2639   89.1492   12.6798 C.ar    1  UNL1        0.0493
     36 C          63.3061   87.9985   13.6412 C.ar    1  UNL1        0.0146
     37 C          64.2258   88.0437   14.8252 C.ar    1  UNL1        0.0028
     38 C          65.1034   89.2397   15.0479 C.ar    1  UNL1        0.0192
     39 C          65.0613   90.3903   14.0866 C.ar    1  UNL1        0.0821
     40 N          65.9389   91.5862   14.3093 N.ar    1  UNL1       -0.2496
@<TRIPOS>BOND
     1    30    31    1
     2    31    32   ar
     3    32    33   ar
     4    33    34   ar
     5    34    35   ar
     6    35    24    1
     7    24    25    1
     8    25    26    1
     9    26    27    1
    10    27    23    1
    11    23    22    1
    12    22     1    1
    13     1     2   ar
    14     2     3   ar
    15     3     4   ar
    16     4     5   ar
    17     5     6   ar
    18     6     7    1
    19     7     8    1
    20     8     9    1
    21     9    10   ar
    22    10    14    1
    23    14    15    2
    24    14    16   am
    25    16    17    1
    26    17    18    1
    27    18    19    1
    28    19    20    1
    29    20    21    1
    30    10    11   ar
    31    11    12   ar
    32    12    13   ar
    33    27    28    1
    34    28    29    1
    35    35    36   ar
    36    36    37   ar
    37    37    38   ar
    38    38    39   ar
    39    39    40   ar
    40    40    31   ar
    41    39    34   ar
    42    29    24    1
    43     6     1   ar
    44    13     9   ar
    45    13     5    1
    46    21    16    1
@<TRIPOS>MOLECULE
*****
 40 46 0 0 0
SMALL
GASTEIGER

@<TRIPOS>ATOM
      1 C          63.7075   90.3719   15.7421 C.ar    1  UNL1        0.0146
      2 C          64.9584   91.1426   16.0441 C.ar    1  UNL1       -0.0011
      3 C          65.6827   91.8583   14.9428 C.ar    1  UNL1        0.0014
      4 C          65.1561   91.8034   13.5393 C.ar    1  UNL1        0.0206
      5 C          63.9053   91.0327   13.2372 C.ar    1  UNL1        0.0989
      6 C          63.1809   90.3170   14.3386 C.ar    1  UNL1        0.1511
      7 O          61.9300   89.5463   14.0365 O.3     1  UNL1       -0.4678
      8 C          61.4034   89.4913   12.6331 C.3     1  UNL1        0.2510
      9 C          62.1278   90.2071   11.5317 C.ar    1  UNL1        0.1087
     10 C          61.8498   90.3317   10.0630 C.ar    1  UNL1        0.1518
     11 N          62.9289   91.1795    9.4573 N.ar    1  UNL1       -0.2192
     12 C          63.8738   91.5788   10.5517 C.ar    1  UNL1        0.1828
     13 N          63.3787   90.9778   11.8338 N.ar    1  UNL1       -0.2851
     14 C          60.6954   89.7166    9.3288 C.2     1  UNL1        0.2682
     15 O          59.4805   90.5394    9.0173 O.2     1  UNL1       -0.2682
     16 N          60.7560   88.2787    8.9061 N.am    1  UNL1       -0.2697
     17 C          61.9708   87.4558    9.2175 C.3     1  UNL1        0.1258
     18 C          62.0313   86.0179    8.7948 C.3     1  UNL1        0.1637
     19 O          60.8769   85.4028    8.0606 O.3     1  UNL1       -0.3501
     20 C          59.6620   86.2257    7.7492 C.3     1  UNL1        0.1637
     21 C          59.6016   87.6636    8.1719 C.3     1  UNL1        0.1258
     22 C          62.9831   89.6562   16.8434 C.3     1  UNL1        0.0468
     23 C          63.3275   88.2323   17.1660 C.3     1  UNL1        0.0770
     24 N          63.5387   85.1680   13.8774 N.pl3   1  UNL1       -0.3046
     25 C          64.2620   86.4741   13.7330 C.3     1  UNL1        0.1081
     26 C          64.1916   87.4956   14.8293 C.3     1  UNL1        0.0938
     27 N          63.3979   87.2109   16.0698 N.3     1  UNL1       -0.2695
     28 C          62.6745   85.9047   16.2141 C.3     1  UNL1        0.0938
     29 C          62.7449   84.8833   15.1179 C.3     1  UNL1        0.1081
     30 C          61.5386   78.5935   13.7173 C.3     1  UNL1        0.0521
     31 C          62.0562   79.9818   13.4832 C.ar    1  UNL1        0.0593
     32 C          61.9858   81.0032   14.5795 C.ar    1  UNL1        0.0148
     33 C          62.5034   82.3914   14.3454 C.ar    1  UNL1        0.0039
     34 C          63.0915   82.7583   13.0152 C.ar    1  UNL1        0.0310
     35 C          63.6091   84.1466   12.7811 C.ar    1  UNL1        0.0493
     36 C          64.1971   84.5134   11.4508 C.ar    1  UNL1        0.0146
     37 C          64.2675   83.4920   10.3546 C.ar    1  UNL1        0.0028
     38 C          63.7499   82.1037   10.5886 C.ar    1  UNL1        0.0192
     39 C          63.1619   81.7369   11.9189 C.ar    1  UNL1        0.0821
     40 N          62.6443   80.3486   12.1529 N.ar    1  UNL1       -0.2496
@<TRIPOS>BOND
     1    30    31    1
     2    31    32   ar
     3    32    33   ar
     4    33    34   ar
     5    34    35   ar
     6    35    24    1
     7    24    25    1
     8    25    26    1
     9    26    27    1
    10    27    23    1
    11    23    22    1
    12    22     1    1
    13     1     2   ar
    14     2     3   ar
    15     3     4   ar
    16     4     5   ar
    17     5     6   ar
    18     6     7    1
    19     7     8    1
    20     8     9    1
    21     9    10   ar
    22    10    14    1
    23    14    15    2
    24    14    16   am
    25    16    17    1
    26    17    18    1
    27    18    19    1
    28    19    20    1
    29    20    21    1
    30    10    11   ar
    31    11    12   ar
    32    12    13   ar
    33    27    28    1
    34    28    29    1
    35    35    36   ar
    36    36    37   ar
    37    37    38   ar
    38    38    39   ar
    39    39    40   ar
    40    40    31   ar
    41    39    34   ar
    42    29    24    1
    43     6     1   ar
    44    13     9   ar
    45    13     5    1
    46    21    16    1
