@<TRIPOS>MOLECULE
*****
 44 47 0 0 0
SMALL
GASTEIGER

@<TRIPOS>ATOM
      1 C          65.2181   85.3843   14.1859 C.3     1  UNL1        0.1484
      2 O          66.6396   85.2146   14.6336 O.3     1  UNL1       -0.3810
      3 H          67.0059   86.0781   14.8809 H       1  UNL1        0.2105
      4 C          64.5925   86.7477   14.1760 C.3     1  UNL1        0.1245
      5 C          63.7809   88.8209   15.5150 C.2     1  UNL1        0.2492
      6 O          63.2900   89.4301   16.7949 O.2     1  UNL1       -0.2699
      7 N          64.1016   87.3568   15.4559 N.am    1  UNL1       -0.2735
      8 C          65.9686   93.0305   11.2430 C.ar    1  UNL1        0.2924
      9 N          64.7158   92.3464   10.7820 N.ar    1  UNL1       -0.1946
     10 C          64.2912   91.3858   11.8530 C.ar    1  UNL1        0.1202
     11 C          63.1307   90.4405   11.9507 C.ar    1  UNL1        0.0225
     12 C          62.9606   89.5855   13.1714 C.ar    1  UNL1        0.0063
     13 C          63.9510   89.6759   14.2943 C.ar    1  UNL1        0.0567
     14 C          65.1115   90.6212   14.1965 C.ar    1  UNL1        0.0437
     15 C          65.2816   91.4762   12.9759 C.ar    1  UNL1        0.1662
     16 O          66.3182   92.4927   12.5989 O.2     1  UNL1       -0.4237
     17 N          66.7368   94.0699   10.4818 N.pl3   1  UNL1       -0.2619
     18 C          66.5524   95.5235   10.8027 C.3     1  UNL1        0.1166
     19 C          68.3559   92.3133    9.4606 C.3     1  UNL1        0.0233
     20 C          67.6894   93.6557    9.3997 C.3     1  UNL1        0.0952
     21 C          63.9315   86.5018   16.6766 C.3     1  UNL1        0.0937
     22 C          62.6124   86.4668   17.3898 C.3     1  UNL1        0.0199
     23 C          62.5175   86.9271   18.8143 C.3     1  UNL1        0.0018
     24 C          61.3881   85.9715   16.6786 C.3     1  UNL1        0.0018
     25 C          64.4221   84.1907   13.7479 C.3     1  UNL1        0.1075
     26 N          64.1771   83.9472   12.2882 N.am    1  UNL1       -0.2695
     27 C          62.9693   84.5365   11.6219 C.2     1  UNL1        0.4020
     28 O          62.0066   85.3694   12.4152 O.2     1  UNL1       -0.2264
     29 H          64.8090   83.4006   11.7674 H       1  UNL1        0.1528
     30 O          62.7243   84.2930   10.1621 O.3     1  UNL1       -0.4297
     31 C          62.9225   85.4030    9.1730 C.3     1  UNL1        0.2368
     32 C          61.8420   86.4219    8.9626 C.ar    1  UNL1        0.0244
     33 C          60.6704   86.1017    8.0824 C.ar    1  UNL1        0.0200
     34 C          59.5898   87.1207    7.8720 C.ar    1  UNL1        0.0987
     35 N          59.6809   88.4597    8.5418 N.ar    1  UNL1       -0.2423
     36 C          60.8525   88.7799    9.4220 C.ar    1  UNL1        0.0987
     37 C          61.9331   87.7610    9.6324 C.ar    1  UNL1        0.0200
     38 C          63.8712   83.2407   14.7696 C.3     1  UNL1        0.0485
     39 C          63.0362   82.0730   14.3346 C.ar    1  UNL1       -0.0204
     40 C          61.5503   82.0961   14.5385 C.ar    1  UNL1       -0.0042
     41 C          60.7153   80.9284   14.1035 C.ar    1  UNL1       -0.0003
     42 C          61.3662   79.7376   13.4647 C.ar    1  UNL1       -0.0000
     43 C          62.8520   79.7144   13.2608 C.ar    1  UNL1       -0.0003
     44 C          63.6871   80.8821   13.6957 C.ar    1  UNL1       -0.0042
@<TRIPOS>BOND
     1    19    20    1
     2    20    17    1
     3    17    18    1
     4    17     8    1
     5     8     9   ar
     6     9    10   ar
     7    10    11   ar
     8    11    12   ar
     9    12    13   ar
    10    13     5    1
    11     5     6    2
    12     5     7   am
    13     7    21    1
    14    21    22    1
    15    22    23    1
    16    22    24    1
    17     7     4    1
    18     4     1    1
    19     1     2    1
    20     1    25    1
    21    25    38    1
    22    38    39    1
    23    39    40   ar
    24    40    41   ar
    25    41    42   ar
    26    42    43   ar
    27    43    44   ar
    28    25    26    1
    29    26    27   am
    30    27    28    2
    31    27    30    1
    32    30    31    1
    33    31    32    1
    34    32    33   ar
    35    33    34   ar
    36    34    35   ar
    37    35    36   ar
    38    36    37   ar
    39    13    14   ar
    40    14    15   ar
    41    15    16   ar
    42    16     8   ar
    43    15    10   ar
    44    44    39   ar
    45    37    32   ar
    46     2     3    1
    47    26    29    1
@<TRIPOS>MOLECULE
*****
 44 47 0 0 0
SMALL
GASTEIGER

@<TRIPOS>ATOM
      1 C          63.5956   87.7337   13.1374 C.3     1  UNL1        0.1484
      2 O          63.3840   88.8431   12.1503 O.3     1  UNL1       -0.3810
      3 H          63.7385   89.6701   12.5126 H       1  UNL1        0.2105
      4 C          64.2698   88.0140   14.4478 C.3     1  UNL1        0.1245
      5 C          63.8553   90.2795   15.6502 C.2     1  UNL1        0.2492
      6 O          63.1472   91.0818   16.7013 O.2     1  UNL1       -0.2699
      7 N          63.5616   88.8164   15.4989 N.am    1  UNL1       -0.2735
      8 C          66.6229   93.4295   10.8361 C.ar    1  UNL1        0.2924
      9 N          67.6119   92.9867   11.8734 N.ar    1  UNL1       -0.1946
     10 C          66.8606   92.2621   12.9508 C.ar    1  UNL1        0.1202
     11 C          67.3121   91.6063   14.2220 C.ar    1  UNL1        0.0225
     12 C          66.3104   90.9454   15.1217 C.ar    1  UNL1        0.0063
     13 C          64.8571   90.9404   14.7503 C.ar    1  UNL1        0.0567
     14 C          64.4056   91.5962   13.4791 C.ar    1  UNL1        0.0437
     15 C          65.4074   92.2571   12.5793 C.ar    1  UNL1        0.1662
     16 O          65.2605   92.9785   11.2724 O.2     1  UNL1       -0.4237
     17 N          66.9406   94.1897    9.5827 N.pl3   1  UNL1       -0.2619
     18 C          66.3118   95.5293    9.3383 C.3     1  UNL1        0.1166
     19 C          68.6268   92.3419    8.8809 C.3     1  UNL1        0.0233
     20 C          67.8872   93.6102    8.5736 C.3     1  UNL1        0.0952
     21 C          62.5598   88.1554   16.3988 C.3     1  UNL1        0.0937
     22 C          62.9685   86.9866   17.2454 C.3     1  UNL1        0.0199
     23 C          63.6252   85.7956   16.6129 C.3     1  UNL1        0.0018
     24 C          62.7203   87.0088   18.7246 C.3     1  UNL1        0.0018
     25 C          63.1332   86.3438   12.8141 C.3     1  UNL1        0.1075
     26 N          61.8940   86.1373   11.9944 N.am    1  UNL1       -0.2695
     27 C          62.0054   85.8411   10.5282 C.2     1  UNL1        0.4020
     28 O          63.3559   85.7513    9.8817 O.2     1  UNL1       -0.2264
     29 H          61.0076   86.1963   12.4187 H       1  UNL1        0.1528
     30 O          60.7662   85.6346    9.7085 O.3     1  UNL1       -0.4297
     31 C          59.9568   86.8159    9.2621 C.3     1  UNL1        0.2368
     32 C          60.1307   88.1431    9.9391 C.ar    1  UNL1        0.0244
     33 C          60.9852   89.2013    9.3067 C.ar    1  UNL1        0.0200
     34 C          61.1591   90.5286    9.9838 C.ar    1  UNL1        0.0987
     35 N          60.4784   90.7975   11.2931 N.ar    1  UNL1       -0.2423
     36 C          59.6239   89.7393   11.9254 C.ar    1  UNL1        0.0987
     37 C          59.4500   88.4121   11.2485 C.ar    1  UNL1        0.0200
     38 C          63.9098   85.1605   13.3106 C.3     1  UNL1        0.0485
     39 C          63.3185   83.7848   13.2226 C.ar    1  UNL1       -0.0204
     40 C          62.4577   83.2658   14.3359 C.ar    1  UNL1       -0.0042
     41 C          61.8664   81.8901   14.2479 C.ar    1  UNL1       -0.0003
     42 C          62.1359   81.0333   13.0466 C.ar    1  UNL1       -0.0000
     43 C          62.9967   81.5523   11.9332 C.ar    1  UNL1       -0.0003
     44 C          63.5880   82.9280   12.0212 C.ar    1  UNL1       -0.0042
@<TRIPOS>BOND
     1    19    20    1
     2    20    17    1
     3    17    18    1
     4    17     8    1
     5     8     9   ar
     6     9    10   ar
     7    10    11   ar
     8    11    12   ar
     9    12    13   ar
    10    13     5    1
    11     5     6    2
    12     5     7   am
    13     7    21    1
    14    21    22    1
    15    22    23    1
    16    22    24    1
    17     7     4    1
    18     4     1    1
    19     1     2    1
    20     1    25    1
    21    25    38    1
    22    38    39    1
    23    39    40   ar
    24    40    41   ar
    25    41    42   ar
    26    42    43   ar
    27    43    44   ar
    28    25    26    1
    29    26    27   am
    30    27    28    2
    31    27    30    1
    32    30    31    1
    33    31    32    1
    34    32    33   ar
    35    33    34   ar
    36    34    35   ar
    37    35    36   ar
    38    36    37   ar
    39    13    14   ar
    40    14    15   ar
    41    15    16   ar
    42    16     8   ar
    43    15    10   ar
    44    44    39   ar
    45    37    32   ar
    46     2     3    1
    47    26    29    1
@<TRIPOS>MOLECULE
*****
 44 47 0 0 0
SMALL
GASTEIGER

@<TRIPOS>ATOM
      1 C          64.6759   86.0140   14.3825 C.3     1  UNL1        0.1484
      2 O          65.8505   85.6252   15.2306 O.3     1  UNL1       -0.3810
      3 H          66.2266   86.4176   15.6448 H       1  UNL1        0.2105
      4 C          64.2633   87.4530   14.2871 C.3     1  UNL1        0.1245
      5 C          63.6533   89.6805   15.4772 C.2     1  UNL1        0.2492
      6 O          63.2166   90.4186   16.7078 O.2     1  UNL1       -0.2699
      7 N          63.8266   88.1911   15.5178 N.am    1  UNL1       -0.2735
      8 C          66.2107   93.4686   11.0199 C.ar    1  UNL1        0.2924
      9 N          64.9574   92.7939   10.5466 N.ar    1  UNL1       -0.1946
     10 C          64.4435   91.9344   11.6633 C.ar    1  UNL1        0.1202
     11 C          63.2444   91.0397   11.7710 C.ar    1  UNL1        0.0225
     12 C          62.9810   90.2884   13.0423 C.ar    1  UNL1        0.0063
     13 C          63.9167   90.4318   14.2059 C.ar    1  UNL1        0.0567
     14 C          65.1158   91.3265   14.0981 C.ar    1  UNL1        0.0437
     15 C          65.3792   92.0778   12.8269 C.ar    1  UNL1        0.1662
     16 O          66.4714   93.0260   12.4292 O.2     1  UNL1       -0.4237
     17 N          67.0551   94.4189   10.2237 N.pl3   1  UNL1       -0.2619
     18 C          68.0805   93.8890    9.2658 C.3     1  UNL1        0.1166
     19 C          65.8916   96.4295   11.3872 C.3     1  UNL1        0.0233
     20 C          66.8740   95.8991   10.3854 C.3     1  UNL1        0.0952
     21 C          63.5632   87.4398   16.7891 C.3     1  UNL1        0.0937
     22 C          62.5136   86.3687   16.8235 C.3     1  UNL1        0.0199
     23 C          61.0632   86.7362   16.7177 C.3     1  UNL1        0.0018
     24 C          62.9145   84.9300   16.9638 C.3     1  UNL1        0.0018
     25 C          63.9140   84.9638   13.6298 C.3     1  UNL1        0.1075
     26 N          62.6423   85.3238   12.9203 N.am    1  UNL1       -0.2695
     27 C          62.5036   85.0611   11.4500 C.2     1  UNL1        0.4020
     28 O          63.6365   84.4385   10.6892 O.2     1  UNL1       -0.2264
     29 H          61.8988   85.7324   13.4196 H       1  UNL1        0.1528
     30 O          61.2319   85.4211   10.7405 O.3     1  UNL1       -0.4297
     31 C          61.2148   86.5580    9.7622 C.3     1  UNL1        0.2368
     32 C          60.6910   87.8997   10.1808 C.ar    1  UNL1        0.0244
     33 C          60.0825   88.0765   11.5405 C.ar    1  UNL1        0.0200
     34 C          59.5586   89.4183   11.9590 C.ar    1  UNL1        0.0987
     35 N          59.6432   90.5833   11.0180 N.ar    1  UNL1       -0.2423
     36 C          60.2517   90.4066    9.6584 C.ar    1  UNL1        0.0987
     37 C          60.7755   89.0648    9.2398 C.ar    1  UNL1        0.0200
     38 C          64.4237   83.5538   13.5865 C.3     1  UNL1        0.0485
     39 C          63.4570   82.4082   13.5298 C.ar    1  UNL1       -0.0204
     40 C          62.2680   82.3843   14.4439 C.ar    1  UNL1       -0.0042
     41 C          61.3012   81.2388   14.3871 C.ar    1  UNL1       -0.0003
     42 C          61.5236   80.1171   13.4164 C.ar    1  UNL1       -0.0000
     43 C          62.7126   80.1410   12.5023 C.ar    1  UNL1       -0.0003
     44 C          63.6793   81.2866   12.5590 C.ar    1  UNL1       -0.0042
@<TRIPOS>BOND
     1    19    20    1
     2    20    17    1
     3    17    18    1
     4    17     8    1
     5     8     9   ar
     6     9    10   ar
     7    10    11   ar
     8    11    12   ar
     9    12    13   ar
    10    13     5    1
    11     5     6    2
    12     5     7   am
    13     7    21    1
    14    21    22    1
    15    22    23    1
    16    22    24    1
    17     7     4    1
    18     4     1    1
    19     1     2    1
    20     1    25    1
    21    25    38    1
    22    38    39    1
    23    39    40   ar
    24    40    41   ar
    25    41    42   ar
    26    42    43   ar
    27    43    44   ar
    28    25    26    1
    29    26    27   am
    30    27    28    2
    31    27    30    1
    32    30    31    1
    33    31    32    1
    34    32    33   ar
    35    33    34   ar
    36    34    35   ar
    37    35    36   ar
    38    36    37   ar
    39    13    14   ar
    40    14    15   ar
    41    15    16   ar
    42    16     8   ar
    43    15    10   ar
    44    44    39   ar
    45    37    32   ar
    46     2     3    1
    47    26    29    1
@<TRIPOS>MOLECULE
*****
 44 47 0 0 0
SMALL
GASTEIGER

@<TRIPOS>ATOM
      1 C          62.7657   89.7289   13.1433 C.3     1  UNL1        0.1484
      2 O          61.5011   89.8930   13.9330 O.3     1  UNL1       -0.3810
      3 H          60.7561   89.5290   13.4297 H       1  UNL1        0.2105
      4 C          62.7270   89.0795   11.7917 C.3     1  UNL1        0.1245
      5 C          60.9822   87.9682   10.2199 C.2     1  UNL1        0.2492
      6 O          59.7459   88.0657    9.3761 O.2     1  UNL1       -0.2699
      7 N          61.4907   89.1770   10.9479 N.am    1  UNL1       -0.2735
      8 C          63.3263   82.4334   12.3713 C.ar    1  UNL1        0.2924
      9 N          63.7692   82.7361   10.9705 N.ar    1  UNL1       -0.1946
     10 C          63.1657   84.0488   10.5670 C.ar    1  UNL1        0.1202
     11 C          63.2537   84.8466    9.2999 C.ar    1  UNL1        0.0225
     12 C          62.5259   86.1531    9.1842 C.ar    1  UNL1        0.0063
     13 C          61.7101   86.6616   10.3356 C.ar    1  UNL1        0.0567
     14 C          61.6221   85.8638   11.6027 C.ar    1  UNL1        0.0437
     15 C          62.3499   84.5573   11.7184 C.ar    1  UNL1        0.1662
     16 O          62.4491   83.5590   12.8335 O.2     1  UNL1       -0.4237
     17 N          63.6957   81.2184   13.1697 N.pl3   1  UNL1       -0.2619
     18 C          65.0770   81.0869   13.7395 C.3     1  UNL1        0.1166
     19 C          61.3167   80.4812   13.9093 C.3     1  UNL1        0.0233
     20 C          62.6838   80.1350   13.3983 C.3     1  UNL1        0.0952
     21 C          60.7628   90.4835   10.8321 C.3     1  UNL1        0.0937
     22 C          59.4463   90.6726   11.5257 C.3     1  UNL1        0.0199
     23 C          58.8169   89.5291   12.2648 C.3     1  UNL1        0.0018
     24 C          58.7591   92.0052   11.4800 C.3     1  UNL1        0.0018
     25 C          64.0692   90.2141   13.7052 C.3     1  UNL1        0.1075
     26 N          64.8333   91.2957   13.0007 N.am    1  UNL1       -0.2695
     27 C          65.4945   92.3845   13.7927 C.2     1  UNL1        0.4020
     28 O          65.3916   92.3917   15.2891 O.2     1  UNL1       -0.2264
     29 H          64.9008   91.2909   12.0185 H       1  UNL1        0.1528
     30 O          66.2587   93.4661   13.0882 O.3     1  UNL1       -0.4297
     31 C          65.8325   93.9182   11.7229 C.3     1  UNL1        0.2368
     32 C          66.7107   93.6517   10.5365 C.ar    1  UNL1        0.0244
     33 C          66.8257   94.6730    9.4440 C.ar    1  UNL1        0.0200
     34 C          67.7040   94.4064    8.2576 C.ar    1  UNL1        0.0987
     35 N          68.4673   93.1186    8.1637 N.ar    1  UNL1       -0.2423
     36 C          68.3522   92.0972    9.2562 C.ar    1  UNL1        0.0987
     37 C          67.4740   92.3637   10.4426 C.ar    1  UNL1        0.0200
     38 C          64.6084   89.6177   14.9714 C.3     1  UNL1        0.0485
     39 C          64.1036   88.2883   15.4487 C.ar    1  UNL1       -0.0204
     40 C          63.2534   88.2076   16.6818 C.ar    1  UNL1       -0.0042
     41 C          62.7486   86.8781   17.1591 C.ar    1  UNL1       -0.0003
     42 C          63.0941   85.6294   16.4033 C.ar    1  UNL1       -0.0000
     43 C          63.9443   85.7101   15.1702 C.ar    1  UNL1       -0.0003
     44 C          64.4491   87.0395   14.6930 C.ar    1  UNL1       -0.0042
@<TRIPOS>BOND
     1    19    20    1
     2    20    17    1
     3    17    18    1
     4    17     8    1
     5     8     9   ar
     6     9    10   ar
     7    10    11   ar
     8    11    12   ar
     9    12    13   ar
    10    13     5    1
    11     5     6    2
    12     5     7   am
    13     7    21    1
    14    21    22    1
    15    22    23    1
    16    22    24    1
    17     7     4    1
    18     4     1    1
    19     1     2    1
    20     1    25    1
    21    25    38    1
    22    38    39    1
    23    39    40   ar
    24    40    41   ar
    25    41    42   ar
    26    42    43   ar
    27    43    44   ar
    28    25    26    1
    29    26    27   am
    30    27    28    2
    31    27    30    1
    32    30    31    1
    33    31    32    1
    34    32    33   ar
    35    33    34   ar
    36    34    35   ar
    37    35    36   ar
    38    36    37   ar
    39    13    14   ar
    40    14    15   ar
    41    15    16   ar
    42    16     8   ar
    43    15    10   ar
    44    44    39   ar
    45    37    32   ar
    46     2     3    1
    47    26    29    1
@<TRIPOS>MOLECULE
*****
 44 47 0 0 0
SMALL
GASTEIGER

@<TRIPOS>ATOM
      1 C          62.6410   86.0125   10.2165 C.3     1  UNL1        0.1484
      2 O          62.7606   85.7755    8.7402 O.3     1  UNL1       -0.3810
      3 H          62.6582   86.6167    8.2683 H       1  UNL1        0.2105
      4 C          62.3991   87.3987   10.7364 C.3     1  UNL1        0.1245
      5 C          61.1319   89.6438   10.4149 C.2     1  UNL1        0.2492
      6 O          59.8962   90.3917   10.0101 O.2     1  UNL1       -0.2699
      7 N          61.1635   88.1465   10.3316 N.am    1  UNL1       -0.2735
      8 C          65.7521   92.0914   14.0783 C.ar    1  UNL1        0.2924
      9 N          65.8709   92.5197   12.6457 N.ar    1  UNL1       -0.1946
     10 C          64.7443   91.8924   11.8793 C.ar    1  UNL1        0.1202
     11 C          64.3553   91.9589   10.4322 C.ar    1  UNL1        0.0225
     12 C          63.1512   91.2093    9.9441 C.ar    1  UNL1        0.0063
     13 C          62.3361   90.3934   10.9031 C.ar    1  UNL1        0.0567
     14 C          62.7250   90.3270   12.3503 C.ar    1  UNL1        0.0437
     15 C          63.9291   91.0765   12.8384 C.ar    1  UNL1        0.1662
     16 O          64.5520   91.1995   14.1974 O.2     1  UNL1       -0.4237
     17 N          66.6718   92.4858   15.1957 N.pl3   1  UNL1       -0.2619
     18 C          66.1384   92.6323   16.5899 C.3     1  UNL1        0.1166
     19 C          68.9254   93.6073   15.8387 C.3     1  UNL1        0.0233
     20 C          68.1250   92.7337   14.9188 C.3     1  UNL1        0.0952
     21 C          59.9593   87.3969    9.8434 C.3     1  UNL1        0.0937
     22 C          59.6898   87.2874    8.3718 C.3     1  UNL1        0.0199
     23 C          59.3530   88.5145    7.5777 C.3     1  UNL1        0.0018
     24 C          59.7572   85.9507    7.6945 C.3     1  UNL1        0.0018
     25 C          62.7632   84.8635   11.1729 C.3     1  UNL1        0.1075
     26 N          63.3911   85.0718   12.5192 N.am    1  UNL1       -0.2695
     27 C          64.6208   84.3021   12.9004 C.2     1  UNL1        0.4020
     28 O          65.2226   83.3240   11.9355 O.2     1  UNL1       -0.2264
     29 H          62.9961   85.7138   13.1525 H       1  UNL1        0.1528
     30 O          65.2487   84.5104   14.2467 O.3     1  UNL1       -0.4297
     31 C          64.3848   84.6249   15.4676 C.3     1  UNL1        0.2368
     32 C          63.9085   85.9714   15.9257 C.ar    1  UNL1        0.0244
     33 C          63.0728   86.0894   17.1657 C.ar    1  UNL1        0.0200
     34 C          62.5964   87.4360   17.6238 C.ar    1  UNL1        0.0987
     35 N          62.9558   88.6646   16.8419 N.ar    1  UNL1       -0.2423
     36 C          63.7915   88.5466   15.6019 C.ar    1  UNL1        0.0987
     37 C          64.2679   87.2001   15.1438 C.ar    1  UNL1        0.0200
     38 C          62.2575   83.5062   10.7832 C.3     1  UNL1        0.0485
     39 C          62.2895   82.3808   11.7744 C.ar    1  UNL1       -0.0204
     40 C          62.7674   81.0231   11.3524 C.ar    1  UNL1       -0.0042
     41 C          62.7994   79.8977   12.3436 C.ar    1  UNL1       -0.0003
     42 C          62.3534   80.1300   13.7568 C.ar    1  UNL1       -0.0000
     43 C          61.8754   81.4878   14.1787 C.ar    1  UNL1       -0.0003
     44 C          61.8435   82.6132   13.1875 C.ar    1  UNL1       -0.0042
@<TRIPOS>BOND
     1    19    20    1
     2    20    17    1
     3    17    18    1
     4    17     8    1
     5     8     9   ar
     6     9    10   ar
     7    10    11   ar
     8    11    12   ar
     9    12    13   ar
    10    13     5    1
    11     5     6    2
    12     5     7   am
    13     7    21    1
    14    21    22    1
    15    22    23    1
    16    22    24    1
    17     7     4    1
    18     4     1    1
    19     1     2    1
    20     1    25    1
    21    25    38    1
    22    38    39    1
    23    39    40   ar
    24    40    41   ar
    25    41    42   ar
    26    42    43   ar
    27    43    44   ar
    28    25    26    1
    29    26    27   am
    30    27    28    2
    31    27    30    1
    32    30    31    1
    33    31    32    1
    34    32    33   ar
    35    33    34   ar
    36    34    35   ar
    37    35    36   ar
    38    36    37   ar
    39    13    14   ar
    40    14    15   ar
    41    15    16   ar
    42    16     8   ar
    43    15    10   ar
    44    44    39   ar
    45    37    32   ar
    46     2     3    1
    47    26    29    1
@<TRIPOS>MOLECULE
*****
 44 47 0 0 0
SMALL
GASTEIGER

@<TRIPOS>ATOM
      1 C          62.9564   88.6586   12.0439 C.3     1  UNL1        0.1484
      2 O          63.0008   89.9564   11.2932 O.3     1  UNL1       -0.3810
      3 H          63.6878   90.5263   11.6729 H       1  UNL1        0.2105
      4 C          63.8964   88.4217   13.1886 C.3     1  UNL1        0.1245
      5 C          64.0352   90.1422   15.1304 C.2     1  UNL1        0.2492
      6 O          63.6527   90.5709   16.5160 O.2     1  UNL1       -0.2699
      7 N          63.5139   88.8504   14.5742 N.am    1  UNL1       -0.2735
      8 C          66.3375   94.0900   10.6726 C.ar    1  UNL1        0.2924
      9 N          67.3908   93.6495   11.6456 N.ar    1  UNL1       -0.1946
     10 C          66.7467   92.7319   12.6422 C.ar    1  UNL1        0.1202
     11 C          67.2942   91.9953   13.8286 C.ar    1  UNL1        0.0225
     12 C          66.3904   91.1321   14.6579 C.ar    1  UNL1        0.0063
     13 C          64.9390   91.0055   14.3009 C.ar    1  UNL1        0.0567
     14 C          64.3915   91.7421   13.1145 C.ar    1  UNL1        0.0437
     15 C          65.2953   92.6053   12.2851 C.ar    1  UNL1        0.1662
     16 O          65.0425   93.4446   11.0679 O.2     1  UNL1       -0.4237
     17 N          66.5432   95.0136    9.5088 N.pl3   1  UNL1       -0.2619
     18 C          65.7531   96.2849    9.4114 C.3     1  UNL1        0.1166
     19 C          68.2236   93.3315    8.4616 C.3     1  UNL1        0.0233
     20 C          67.5391   94.6660    8.4423 C.3     1  UNL1        0.0952
     21 C          62.6101   87.9871   15.4037 C.3     1  UNL1        0.0937
     22 C          63.1939   86.9514   16.3182 C.3     1  UNL1        0.0199
     23 C          62.7723   86.8977   17.7567 C.3     1  UNL1        0.0018
     24 C          64.1994   85.9693   15.7942 C.3     1  UNL1        0.0018
     25 C          61.9719   87.5976   11.6500 C.3     1  UNL1        0.1075
     26 N          62.4049   86.1634   11.5752 N.am    1  UNL1       -0.2695
     27 C          62.7775   85.5605   10.2532 C.2     1  UNL1        0.4020
     28 O          62.7173   86.3917    9.0061 O.2     1  UNL1       -0.2264
     29 H          62.4444   85.6177   12.3937 H       1  UNL1        0.1528
     30 O          63.2105   84.1262   10.1784 O.3     1  UNL1       -0.4297
     31 C          64.0106   83.5250   11.2956 C.3     1  UNL1        0.2368
     32 C          63.3292   82.6993   12.3462 C.ar    1  UNL1        0.0244
     33 C          63.0963   81.2355   12.1155 C.ar    1  UNL1        0.0200
     34 C          62.4148   80.4098   13.1661 C.ar    1  UNL1        0.0987
     35 N          61.9662   81.0478   14.4474 N.ar    1  UNL1       -0.2423
     36 C          62.1990   82.5116   14.6781 C.ar    1  UNL1        0.0987
     37 C          62.8805   83.3373   13.6275 C.ar    1  UNL1        0.0200
     38 C          60.5546   87.9708   11.3310 C.3     1  UNL1        0.0485
     39 C          60.1148   88.0939    9.9022 C.ar    1  UNL1       -0.0204
     40 C          60.2725   89.3983    9.1787 C.ar    1  UNL1       -0.0042
     41 C          59.8327   89.5214    7.7499 C.ar    1  UNL1       -0.0003
     42 C          59.2353   88.3400    7.0446 C.ar    1  UNL1       -0.0000
     43 C          59.0777   87.0356    7.7681 C.ar    1  UNL1       -0.0003
     44 C          59.5174   86.9125    9.1969 C.ar    1  UNL1       -0.0042
@<TRIPOS>BOND
     1    19    20    1
     2    20    17    1
     3    17    18    1
     4    17     8    1
     5     8     9   ar
     6     9    10   ar
     7    10    11   ar
     8    11    12   ar
     9    12    13   ar
    10    13     5    1
    11     5     6    2
    12     5     7   am
    13     7    21    1
    14    21    22    1
    15    22    23    1
    16    22    24    1
    17     7     4    1
    18     4     1    1
    19     1     2    1
    20     1    25    1
    21    25    38    1
    22    38    39    1
    23    39    40   ar
    24    40    41   ar
    25    41    42   ar
    26    42    43   ar
    27    43    44   ar
    28    25    26    1
    29    26    27   am
    30    27    28    2
    31    27    30    1
    32    30    31    1
    33    31    32    1
    34    32    33   ar
    35    33    34   ar
    36    34    35   ar
    37    35    36   ar
    38    36    37   ar
    39    13    14   ar
    40    14    15   ar
    41    15    16   ar
    42    16     8   ar
    43    15    10   ar
    44    44    39   ar
    45    37    32   ar
    46     2     3    1
    47    26    29    1
@<TRIPOS>MOLECULE
*****
 44 47 0 0 0
SMALL
GASTEIGER

@<TRIPOS>ATOM
      1 C          62.8903   85.4010   10.8404 C.3     1  UNL1        0.1484
      2 O          63.0944   84.8891    9.4453 O.3     1  UNL1       -0.3810
      3 H          62.8767   85.5884    8.8093 H       1  UNL1        0.2105
      4 C          62.4164   86.8069   11.0617 C.3     1  UNL1        0.1245
      5 C          61.0572   88.8142   10.1273 C.2     1  UNL1        0.2492
      6 O          59.8869   89.3419    9.3515 O.2     1  UNL1       -0.2699
      7 N          61.2461   87.3346   10.2860 N.am    1  UNL1       -0.2735
      8 C          65.4916   93.3217   11.0079 C.ar    1  UNL1        0.2924
      9 N          65.0356   92.7081   12.2985 N.ar    1  UNL1       -0.1946
     10 C          64.0017   91.6696   11.9783 C.ar    1  UNL1        0.1202
     11 C          63.2032   90.7461   12.8498 C.ar    1  UNL1        0.0225
     12 C          62.2218   89.7943   12.2328 C.ar    1  UNL1        0.0063
     13 C          62.0387   89.7660   10.7443 C.ar    1  UNL1        0.0567
     14 C          62.8372   90.6895    9.8728 C.ar    1  UNL1        0.0437
     15 C          63.8187   91.6413   10.4898 C.ar    1  UNL1        0.1662
     16 O          64.7395   92.6623    9.8901 O.2     1  UNL1       -0.4237
     17 N          66.5193   94.4044   10.8610 N.pl3   1  UNL1       -0.2619
     18 C          66.4414   95.6335   11.7172 C.3     1  UNL1        0.1166
     19 C          68.1095   92.8925    9.4698 C.3     1  UNL1        0.0233
     20 C          67.6248   94.2580    9.8578 C.3     1  UNL1        0.0952
     21 C          60.2645   86.3828    9.6690 C.3     1  UNL1        0.0937
     22 C          60.1067   86.3299    8.1782 C.3     1  UNL1        0.0199
     23 C          61.1171   85.6016    7.3424 C.3     1  UNL1        0.0018
     24 C          58.9384   87.0054    7.5233 C.3     1  UNL1        0.0018
     25 C          63.1601   84.5069   12.0143 C.3     1  UNL1        0.1075
     26 N          62.4777   84.7639   13.3252 N.am    1  UNL1       -0.2695
     27 C          63.1809   84.4469   14.6116 C.2     1  UNL1        0.4020
     28 O          64.5665   83.8730   14.5873 O.2     1  UNL1       -0.2264
     29 H          61.5682   85.1406   13.3412 H       1  UNL1        0.1528
     30 O          62.4984   84.7038   15.9225 O.3     1  UNL1       -0.4297
     31 C          63.0760   85.6972   16.8867 C.3     1  UNL1        0.2368
     32 C          63.4086   87.0848   16.4246 C.ar    1  UNL1        0.0244
     33 C          64.2634   87.2856   15.2084 C.ar    1  UNL1        0.0200
     34 C          64.5961   88.6734   14.7463 C.ar    1  UNL1        0.0987
     35 N          64.0739   89.8603   15.5003 N.ar    1  UNL1       -0.2423
     36 C          63.2191   89.6595   16.7164 C.ar    1  UNL1        0.0987
     37 C          62.8865   88.2718   17.1786 C.ar    1  UNL1        0.0200
     38 C          64.1122   83.3560   11.8773 C.3     1  UNL1        0.0485
     39 C          63.5848   81.9652   11.6844 C.ar    1  UNL1       -0.0204
     40 C          63.5370   81.3651   10.3105 C.ar    1  UNL1       -0.0042
     41 C          63.0096   79.9742   10.1175 C.ar    1  UNL1       -0.0003
     42 C          62.5299   79.1834   11.2984 C.ar    1  UNL1       -0.0000
     43 C          62.5777   79.7835   12.6723 C.ar    1  UNL1       -0.0003
     44 C          63.1052   81.1744   12.8652 C.ar    1  UNL1       -0.0042
@<TRIPOS>BOND
     1    19    20    1
     2    20    17    1
     3    17    18    1
     4    17     8    1
     5     8     9   ar
     6     9    10   ar
     7    10    11   ar
     8    11    12   ar
     9    12    13   ar
    10    13     5    1
    11     5     6    2
    12     5     7   am
    13     7    21    1
    14    21    22    1
    15    22    23    1
    16    22    24    1
    17     7     4    1
    18     4     1    1
    19     1     2    1
    20     1    25    1
    21    25    38    1
    22    38    39    1
    23    39    40   ar
    24    40    41   ar
    25    41    42   ar
    26    42    43   ar
    27    43    44   ar
    28    25    26    1
    29    26    27   am
    30    27    28    2
    31    27    30    1
    32    30    31    1
    33    31    32    1
    34    32    33   ar
    35    33    34   ar
    36    34    35   ar
    37    35    36   ar
    38    36    37   ar
    39    13    14   ar
    40    14    15   ar
    41    15    16   ar
    42    16     8   ar
    43    15    10   ar
    44    44    39   ar
    45    37    32   ar
    46     2     3    1
    47    26    29    1
@<TRIPOS>MOLECULE
*****
 44 47 0 0 0
SMALL
GASTEIGER

@<TRIPOS>ATOM
      1 C          61.7363   87.7133   11.5227 C.3     1  UNL1        0.1484
      2 O          60.4361   87.5318   12.2482 O.3     1  UNL1       -0.3810
      3 H          60.6053   87.1528   13.1250 H       1  UNL1        0.2105
      4 C          63.0249   87.3214   12.1831 C.3     1  UNL1        0.1245
      5 C          63.4006   86.5737   14.6427 C.2     1  UNL1        0.2492
      6 O          63.4113   85.4955   15.6855 O.2     1  UNL1       -0.2699
      7 N          63.0355   86.2432   13.2259 N.am    1  UNL1       -0.2735
      8 C          66.1147   92.3470   14.8864 C.ar    1  UNL1        0.2924
      9 N          65.0298   92.1815   15.9089 N.ar    1  UNL1       -0.1946
     10 C          64.4640   90.7997   15.7650 C.ar    1  UNL1        0.1202
     11 C          63.3743   90.0795   16.5024 C.ar    1  UNL1        0.0225
     12 C          63.0199   88.6709   16.1283 C.ar    1  UNL1        0.0063
     13 C          63.7551   87.9824   15.0168 C.ar    1  UNL1        0.0567
     14 C          64.8448   88.7026   14.2793 C.ar    1  UNL1        0.0437
     15 C          65.1993   90.1113   14.6534 C.ar    1  UNL1        0.1662
     16 O          66.2194   91.0676   14.1105 O.2     1  UNL1       -0.4237
     17 N          66.9485   93.5761   14.6766 N.pl3   1  UNL1       -0.2619
     18 C          66.5448   94.5896   13.6472 C.3     1  UNL1        0.1166
     19 C          68.8402   92.6317   16.1864 C.3     1  UNL1        0.0233
     20 C          68.1861   93.7918   15.4963 C.3     1  UNL1        0.0952
     21 C          62.6810   84.8344   12.8518 C.3     1  UNL1        0.0937
     22 C          63.7527   83.8848   12.4051 C.3     1  UNL1        0.0199
     23 C          64.7288   83.3330   13.4014 C.3     1  UNL1        0.0018
     24 C          63.8484   83.4869   10.9619 C.3     1  UNL1        0.0018
     25 C          61.7480   88.2868   10.1367 C.3     1  UNL1        0.1075
     26 N          62.6920   89.4011    9.7940 N.am    1  UNL1       -0.2695
     27 C          62.6015   90.7106   10.5199 C.2     1  UNL1        0.4020
     28 O          61.5671   90.9059   11.5885 O.2     1  UNL1       -0.2264
     29 H          63.3710   89.2730    9.0927 H       1  UNL1        0.1528
     30 O          63.5455   91.8249   10.1773 O.3     1  UNL1       -0.4297
     31 C          64.7229   92.1092   11.0622 C.3     1  UNL1        0.2368
     32 C          65.8936   92.8800   10.5281 C.ar    1  UNL1        0.0244
     33 C          67.1742   92.1696   10.2035 C.ar    1  UNL1        0.0200
     34 C          68.3449   92.9405    9.6694 C.ar    1  UNL1        0.0987
     35 N          68.2351   94.4217    9.4600 N.ar    1  UNL1       -0.2423
     36 C          66.9545   95.1321    9.7846 C.ar    1  UNL1        0.0987
     37 C          65.7837   94.3613   10.3186 C.ar    1  UNL1        0.0200
     38 C          60.8158   87.7461    9.0933 C.3     1  UNL1        0.0485
     39 C          61.2341   86.5823    8.2445 C.ar    1  UNL1       -0.0204
     40 C          60.2910   86.0233    7.2208 C.ar    1  UNL1       -0.0042
     41 C          60.7093   84.8595    6.3720 C.ar    1  UNL1       -0.0003
     42 C          62.0707   84.2546    6.5469 C.ar    1  UNL1       -0.0000
     43 C          63.0138   84.8135    7.5706 C.ar    1  UNL1       -0.0003
     44 C          62.5955   85.9774    8.4194 C.ar    1  UNL1       -0.0042
@<TRIPOS>BOND
     1    19    20    1
     2    20    17    1
     3    17    18    1
     4    17     8    1
     5     8     9   ar
     6     9    10   ar
     7    10    11   ar
     8    11    12   ar
     9    12    13   ar
    10    13     5    1
    11     5     6    2
    12     5     7   am
    13     7    21    1
    14    21    22    1
    15    22    23    1
    16    22    24    1
    17     7     4    1
    18     4     1    1
    19     1     2    1
    20     1    25    1
    21    25    38    1
    22    38    39    1
    23    39    40   ar
    24    40    41   ar
    25    41    42   ar
    26    42    43   ar
    27    43    44   ar
    28    25    26    1
    29    26    27   am
    30    27    28    2
    31    27    30    1
    32    30    31    1
    33    31    32    1
    34    32    33   ar
    35    33    34   ar
    36    34    35   ar
    37    35    36   ar
    38    36    37   ar
    39    13    14   ar
    40    14    15   ar
    41    15    16   ar
    42    16     8   ar
    43    15    10   ar
    44    44    39   ar
    45    37    32   ar
    46     2     3    1
    47    26    29    1
@<TRIPOS>MOLECULE
*****
 44 47 0 0 0
SMALL
GASTEIGER

@<TRIPOS>ATOM
      1 C          62.4631   85.5168   11.4802 C.3     1  UNL1        0.1484
      2 O          63.3538   84.8470   10.4762 O.3     1  UNL1       -0.3810
      3 H          63.5101   83.9281   10.7449 H       1  UNL1        0.2105
      4 C          61.9671   84.7517   12.6713 C.3     1  UNL1        0.1245
      5 C          63.6152   83.9783   14.5249 C.2     1  UNL1        0.2492
      6 O          64.4706   82.9104   15.1396 O.2     1  UNL1       -0.2699
      7 N          62.8225   83.6838   13.2860 N.am    1  UNL1       -0.2735
      8 C          64.3755   90.2000   15.7372 C.ar    1  UNL1        0.2924
      9 N          63.5414   89.5124   16.7772 N.ar    1  UNL1       -0.1946
     10 C          63.4270   88.0658   16.3977 C.ar    1  UNL1        0.1202
     11 C          62.7264   86.9099   17.0480 C.ar    1  UNL1        0.0225
     12 C          62.7891   85.5474   16.4237 C.ar    1  UNL1        0.0063
     13 C          63.5525   85.3409   15.1491 C.ar    1  UNL1        0.0567
     14 C          64.2531   86.4968   14.4988 C.ar    1  UNL1        0.0437
     15 C          64.1904   87.8592   15.1231 C.ar    1  UNL1        0.1662
     16 O          64.7766   89.1782   14.7149 O.2     1  UNL1       -0.4237
     17 N          64.7438   91.6540   15.7222 N.pl3   1  UNL1       -0.2619
     18 C          64.3147   92.5481   16.8475 C.3     1  UNL1        0.1166
     19 C          66.9804   91.8271   14.4116 C.3     1  UNL1        0.0233
     20 C          65.5411   92.2139   14.5817 C.3     1  UNL1        0.0952
     21 C          62.8853   82.3212   12.6617 C.3     1  UNL1        0.0937
     22 C          62.1991   81.1618   13.3212 C.3     1  UNL1        0.0199
     23 C          62.6924   79.7651   13.0849 C.3     1  UNL1        0.0018
     24 C          61.0196   81.3991   14.2171 C.3     1  UNL1        0.0018
     25 C          62.0685   86.9518   11.2932 C.3     1  UNL1        0.1075
     26 N          63.1101   88.0297   11.3500 N.am    1  UNL1       -0.2695
     27 C          62.7919   89.3471   11.9927 C.2     1  UNL1        0.4020
     28 O          61.4320   89.5867   12.5786 O.2     1  UNL1       -0.2264
     29 H          64.0027   87.8725   10.9655 H       1  UNL1        0.1528
     30 O          63.8335   90.4250   12.0496 O.3     1  UNL1       -0.4297
     31 C          63.8609   91.4976   11.0014 C.3     1  UNL1        0.2368
     32 C          65.0887   92.3405   10.8229 C.ar    1  UNL1        0.0244
     33 C          66.4309   91.6881   10.6713 C.ar    1  UNL1        0.0200
     34 C          67.6587   92.5311   10.4927 C.ar    1  UNL1        0.0987
     35 N          67.5444   94.0265   10.4658 N.ar    1  UNL1       -0.2423
     36 C          66.2022   94.6789   10.6174 C.ar    1  UNL1        0.0987
     37 C          64.9744   93.8360   10.7959 C.ar    1  UNL1        0.0200
     38 C          60.6322   87.3090   11.0493 C.3     1  UNL1        0.0485
     39 C          60.1785   87.6942    9.6724 C.ar    1  UNL1       -0.0204
     40 C          60.2513   89.1262    9.2320 C.ar    1  UNL1       -0.0042
     41 C          59.7977   89.5114    7.8551 C.ar    1  UNL1       -0.0003
     42 C          59.2712   88.4646    6.9186 C.ar    1  UNL1       -0.0000
     43 C          59.1984   87.0326    7.3591 C.ar    1  UNL1       -0.0003
     44 C          59.6520   86.6474    8.7359 C.ar    1  UNL1       -0.0042
@<TRIPOS>BOND
     1    19    20    1
     2    20    17    1
     3    17    18    1
     4    17     8    1
     5     8     9   ar
     6     9    10   ar
     7    10    11   ar
     8    11    12   ar
     9    12    13   ar
    10    13     5    1
    11     5     6    2
    12     5     7   am
    13     7    21    1
    14    21    22    1
    15    22    23    1
    16    22    24    1
    17     7     4    1
    18     4     1    1
    19     1     2    1
    20     1    25    1
    21    25    38    1
    22    38    39    1
    23    39    40   ar
    24    40    41   ar
    25    41    42   ar
    26    42    43   ar
    27    43    44   ar
    28    25    26    1
    29    26    27   am
    30    27    28    2
    31    27    30    1
    32    30    31    1
    33    31    32    1
    34    32    33   ar
    35    33    34   ar
    36    34    35   ar
    37    35    36   ar
    38    36    37   ar
    39    13    14   ar
    40    14    15   ar
    41    15    16   ar
    42    16     8   ar
    43    15    10   ar
    44    44    39   ar
    45    37    32   ar
    46     2     3    1
    47    26    29    1
