@<TRIPOS>MOLECULE
*****
 35 38 0 0 0
SMALL
GASTEIGER

@<TRIPOS>ATOM
      1 N          63.9073   86.8634   14.7784 N.am    1  UNL1       -0.2791
      2 C          63.5135   86.5490   13.3655 C.2     1  UNL1        0.2408
      3 O          63.1017   87.6536   12.4382 O.2     1  UNL1       -0.2733
      4 H          64.1775   86.1383   15.3870 H       1  UNL1        0.1550
      5 C          64.5846   90.7689   14.9735 C.ar    1  UNL1        0.0186
      6 C          63.8530   91.1208   16.2348 C.ar    1  UNL1        0.0747
      7 N          63.1394   90.0536   17.0106 N.ar    1  UNL1       -0.3189
      8 C          63.1575   88.6344   16.5251 C.ar    1  UNL1        0.2712
      9 O          62.4440   87.5672   17.3009 O.2     1  UNL1       -0.2658
     10 C          63.8892   88.2825   15.2638 C.ar    1  UNL1        0.1071
     11 C          64.6027   89.3498   14.4880 C.ar    1  UNL1        0.0210
     12 H          62.6592   90.2846   17.8384 H       1  UNL1        0.1690
     13 C          65.6306   93.1084   10.4533 C.3     1  UNL1        0.0521
     14 C          65.8212   93.0059   11.9376 C.ar    1  UNL1        0.0594
     15 C          65.1077   91.9387   12.7134 C.ar    1  UNL1        0.0148
     16 C          65.2982   91.8362   14.1977 C.ar    1  UNL1        0.0042
     17 C          66.2023   92.8009   14.9062 C.ar    1  UNL1        0.0207
     18 C          66.9158   93.8681   14.1304 C.ar    1  UNL1        0.0984
     19 N          66.7252   93.9706   12.6461 N.ar    1  UNL1       -0.2481
     20 C          63.5316   85.1299   12.8800 C.3     1  UNL1        0.1365
     21 N          64.6831   84.2332   13.2267 N.3     1  UNL1       -0.2860
     22 H          65.4288   84.8340   13.5779 H       1  UNL1        0.1240
     23 C          64.5022   83.1349   14.2322 C.3     1  UNL1        0.1160
     24 C          63.4054   82.1274   14.0532 C.ar    1  UNL1        0.0820
     25 C          63.5127   80.8304   13.3073 C.ar    1  UNL1        0.0530
     26 S          62.1824   80.1414   13.3817 S.2     1  UNL1       -0.0643
     27 C          61.2529   81.0125   14.1737 C.ar    1  UNL1        0.1341
     28 N          62.0088   82.2400   14.5887 N.ar    1  UNL1       -0.2392
     29 C          62.3983   84.6073   12.0478 C.3     1  UNL1        0.0514
     30 C          62.2596   85.0346   10.6166 C.ar    1  UNL1       -0.0203
     31 C          61.1326   85.9367   10.2091 C.ar    1  UNL1       -0.0042
     32 C          60.9939   86.3639    8.7780 C.ar    1  UNL1       -0.0003
     33 C          61.9823   85.8891    7.7544 C.ar    1  UNL1       -0.0000
     34 C          63.1092   84.9870    8.1619 C.ar    1  UNL1       -0.0003
     35 C          63.2479   84.5598    9.5930 C.ar    1  UNL1       -0.0042
@<TRIPOS>BOND
     1    13    14    1
     2    14    15   ar
     3    15    16   ar
     4    16     5    1
     5     5     6   ar
     6     6     7   ar
     7     7     8   ar
     8     8     9    2
     9     8    10   ar
    10    10     1    1
    11     1     2   am
    12     2     3    2
    13     2    20    1
    14    20    29    1
    15    29    30    1
    16    30    31   ar
    17    31    32   ar
    18    32    33   ar
    19    33    34   ar
    20    34    35   ar
    21    20    21    1
    22    21    23    1
    23    23    24    1
    24    24    25   ar
    25    25    26   ar
    26    26    27   ar
    27    27    28   ar
    28    10    11   ar
    29    16    17   ar
    30    17    18   ar
    31    18    19   ar
    32    19    14   ar
    33    11     5   ar
    34    35    30   ar
    35    28    24   ar
    36     7    12    1
    37     1     4    1
    38    21    22    1
@<TRIPOS>MOLECULE
*****
 35 38 0 0 0
SMALL
GASTEIGER

@<TRIPOS>ATOM
      1 N          63.0967   88.6404   12.6401 N.am    1  UNL1       -0.2791
      2 C          62.1233   88.8098   11.5115 C.2     1  UNL1        0.2408
      3 O          61.8968   90.1667   10.9137 O.2     1  UNL1       -0.2733
      4 H          63.2454   87.7498   13.0324 H       1  UNL1        0.1550
      5 C          65.3264   91.9213   12.7596 C.ar    1  UNL1        0.0186
      6 C          65.3373   92.2031   14.2329 C.ar    1  UNL1        0.0747
      7 N          64.6013   91.2974   15.1752 N.ar    1  UNL1       -0.3189
      8 C          63.8544   90.1098   14.6443 C.ar    1  UNL1        0.2712
      9 O          63.1185   89.2041   15.5866 O.2     1  UNL1       -0.2658
     10 C          63.8435   89.8279   13.1710 C.ar    1  UNL1        0.1071
     11 C          64.5795   90.7337   12.2287 C.ar    1  UNL1        0.0210
     12 H          64.6085   91.4824   16.1421 H       1  UNL1        0.1690
     13 C          68.5963   92.5698    8.7738 C.3     1  UNL1        0.0521
     14 C          67.6973   93.1513    9.8244 C.ar    1  UNL1        0.0594
     15 C          66.9614   92.2456   10.7667 C.ar    1  UNL1        0.0148
     16 C          66.0624   92.8270   11.8173 C.ar    1  UNL1        0.0042
     17 C          65.8994   94.3142   11.9256 C.ar    1  UNL1        0.0207
     18 C          66.6354   95.2199   10.9833 C.ar    1  UNL1        0.0984
     19 N          67.5344   94.6384    9.9327 N.ar    1  UNL1       -0.2481
     20 C          61.3765   87.6222   10.9806 C.3     1  UNL1        0.1365
     21 N          61.2025   86.4021   11.8356 N.3     1  UNL1       -0.2860
     22 H          60.3292   85.9617   11.5460 H       1  UNL1        0.1240
     23 C          62.2503   85.3288   11.8330 C.3     1  UNL1        0.1160
     24 C          63.0021   85.0116   13.0916 C.ar    1  UNL1        0.0820
     25 C          63.1718   83.6501   13.6979 C.ar    1  UNL1        0.0530
     26 S          63.9908   83.7972   14.9459 S.2     1  UNL1       -0.0643
     27 C          64.3274   85.2496   15.1110 C.ar    1  UNL1        0.1341
     28 N          63.7163   86.0002   13.9649 N.ar    1  UNL1       -0.2392
     29 C          60.8037   87.6548    9.5946 C.3     1  UNL1        0.0514
     30 C          61.1854   86.5984    8.6003 C.ar    1  UNL1       -0.0203
     31 C          62.5871   86.0653    8.5733 C.ar    1  UNL1       -0.0042
     32 C          62.9688   85.0091    7.5791 C.ar    1  UNL1       -0.0003
     33 C          61.9486   84.4859    6.6118 C.ar    1  UNL1       -0.0000
     34 C          60.5468   85.0189    6.6389 C.ar    1  UNL1       -0.0003
     35 C          60.1652   86.0752    7.6331 C.ar    1  UNL1       -0.0042
@<TRIPOS>BOND
     1    13    14    1
     2    14    15   ar
     3    15    16   ar
     4    16     5    1
     5     5     6   ar
     6     6     7   ar
     7     7     8   ar
     8     8     9    2
     9     8    10   ar
    10    10     1    1
    11     1     2   am
    12     2     3    2
    13     2    20    1
    14    20    29    1
    15    29    30    1
    16    30    31   ar
    17    31    32   ar
    18    32    33   ar
    19    33    34   ar
    20    34    35   ar
    21    20    21    1
    22    21    23    1
    23    23    24    1
    24    24    25   ar
    25    25    26   ar
    26    26    27   ar
    27    27    28   ar
    28    10    11   ar
    29    16    17   ar
    30    17    18   ar
    31    18    19   ar
    32    19    14   ar
    33    11     5   ar
    34    35    30   ar
    35    28    24   ar
    36     7    12    1
    37     1     4    1
    38    21    22    1
@<TRIPOS>MOLECULE
*****
 35 38 0 0 0
SMALL
GASTEIGER

@<TRIPOS>ATOM
      1 N          63.7373   86.8910   14.2395 N.am    1  UNL1       -0.2791
      2 C          63.0817   86.7475   12.8981 C.2     1  UNL1        0.2408
      3 O          62.5048   87.9505   12.2126 O.2     1  UNL1       -0.2733
      4 H          64.1159   86.1014   14.6894 H       1  UNL1        0.1550
      5 C          64.6026   90.7136   14.8631 C.ar    1  UNL1        0.0186
      6 C          63.9739   90.9309   16.2075 C.ar    1  UNL1        0.0747
      7 N          63.2663   89.8016   16.8959 N.ar    1  UNL1       -0.3189
      8 C          63.1875   88.4549   16.2400 C.ar    1  UNL1        0.2712
      9 O          62.4799   87.3256   16.9284 O.2     1  UNL1       -0.2658
     10 C          63.8162   88.2376   14.8955 C.ar    1  UNL1        0.1071
     11 C          64.5237   89.3670   14.2071 C.ar    1  UNL1        0.0210
     12 H          62.8537   89.9443   17.7784 H       1  UNL1        0.1690
     13 C          65.6623   93.3893   10.5366 C.3     1  UNL1        0.0521
     14 C          65.8400   93.1808   12.0114 C.ar    1  UNL1        0.0594
     15 C          65.1324   92.0515   12.6998 C.ar    1  UNL1        0.0148
     16 C          65.3101   91.8430   14.1746 C.ar    1  UNL1        0.0042
     17 C          66.1953   92.7639   14.9610 C.ar    1  UNL1        0.0207
     18 C          66.9028   93.8932   14.2725 C.ar    1  UNL1        0.0984
     19 N          66.7252   94.1017   12.7977 N.ar    1  UNL1       -0.2481
     20 C          63.0028   85.4009   12.2421 C.3     1  UNL1        0.1365
     21 N          62.0841   85.1874   11.0757 N.3     1  UNL1       -0.2860
     22 H          61.1543   85.4803   11.3758 H       1  UNL1        0.1240
     23 C          62.3552   85.8768    9.7714 C.3     1  UNL1        0.1160
     24 C          61.2752   86.6793    9.1086 C.ar    1  UNL1        0.0820
     25 C          60.1996   86.1400    8.2128 C.ar    1  UNL1        0.0530
     26 S          59.3407   87.2894    7.7757 S.2     1  UNL1       -0.0643
     27 C          59.8854   88.5392    8.4013 C.ar    1  UNL1        0.1341
     28 N          61.0810   88.1621    9.2250 N.ar    1  UNL1       -0.2392
     29 C          63.8427   84.2676   12.7524 C.3     1  UNL1        0.0514
     30 C          63.2291   82.9152   12.9635 C.ar    1  UNL1       -0.0203
     31 C          62.3839   82.6559   14.1752 C.ar    1  UNL1       -0.0042
     32 C          61.7704   81.3035   14.3862 C.ar    1  UNL1       -0.0003
     33 C          62.0021   80.2104   13.3855 C.ar    1  UNL1       -0.0000
     34 C          62.8473   80.4697   12.1738 C.ar    1  UNL1       -0.0003
     35 C          63.4608   81.8221   11.9628 C.ar    1  UNL1       -0.0042
@<TRIPOS>BOND
     1    13    14    1
     2    14    15   ar
     3    15    16   ar
     4    16     5    1
     5     5     6   ar
     6     6     7   ar
     7     7     8   ar
     8     8     9    2
     9     8    10   ar
    10    10     1    1
    11     1     2   am
    12     2     3    2
    13     2    20    1
    14    20    29    1
    15    29    30    1
    16    30    31   ar
    17    31    32   ar
    18    32    33   ar
    19    33    34   ar
    20    34    35   ar
    21    20    21    1
    22    21    23    1
    23    23    24    1
    24    24    25   ar
    25    25    26   ar
    26    26    27   ar
    27    27    28   ar
    28    10    11   ar
    29    16    17   ar
    30    17    18   ar
    31    18    19   ar
    32    19    14   ar
    33    11     5   ar
    34    35    30   ar
    35    28    24   ar
    36     7    12    1
    37     1     4    1
    38    21    22    1
@<TRIPOS>MOLECULE
*****
 35 38 0 0 0
SMALL
GASTEIGER

@<TRIPOS>ATOM
      1 N          64.4084   88.8391   14.0861 N.am    1  UNL1       -0.2791
      2 C          63.4562   89.9165   13.6589 C.2     1  UNL1        0.2408
      3 O          62.0007   89.8120   14.0062 O.2     1  UNL1       -0.2733
      4 H          65.3637   88.9078   13.8582 H       1  UNL1        0.1550
      5 C          63.3587   85.1207   14.9923 C.ar    1  UNL1        0.0186
      6 C          62.8988   85.2934   16.4096 C.ar    1  UNL1        0.0747
      7 N          62.9421   86.6479   17.0524 N.ar    1  UNL1       -0.3189
      8 C          63.4454   87.8299   16.2779 C.ar    1  UNL1        0.2712
      9 O          63.4887   89.1845   16.9207 O.2     1  UNL1       -0.2658
     10 C          63.9052   87.6573   14.8606 C.ar    1  UNL1        0.1071
     11 C          63.8619   86.3026   14.2178 C.ar    1  UNL1        0.0210
     12 H          62.6403   86.7612   17.9826 H       1  UNL1        0.1690
     13 C          60.9160   80.6106   14.1605 C.3     1  UNL1        0.0521
     14 C          62.0940   81.5110   13.9336 C.ar    1  UNL1        0.0594
     15 C          62.1374   82.8656   14.5764 C.ar    1  UNL1        0.0148
     16 C          63.3154   83.7660   14.3495 C.ar    1  UNL1        0.0042
     17 C          64.4501   83.3119   13.4799 C.ar    1  UNL1        0.0207
     18 C          64.4067   81.9573   12.8372 C.ar    1  UNL1        0.0984
     19 N          63.2287   81.0569   13.0640 N.ar    1  UNL1       -0.2481
     20 C          63.9594   91.0984   12.8844 C.3     1  UNL1        0.1365
     21 N          64.8517   92.1051   13.5480 N.3     1  UNL1       -0.2860
     22 H          64.9177   91.8380   14.5301 H       1  UNL1        0.1240
     23 C          66.2555   92.3016   13.0574 C.3     1  UNL1        0.1160
     24 C          66.5209   93.1933   11.8808 C.ar    1  UNL1        0.0820
     25 C          66.9102   92.7435   10.5037 C.ar    1  UNL1        0.0530
     26 S          67.0735   93.9635    9.6464 S.2     1  UNL1       -0.0643
     27 C          66.7851   95.1674   10.4936 C.ar    1  UNL1        0.1341
     28 N          66.4436   94.6913   11.8746 N.ar    1  UNL1       -0.2392
     29 C          63.5702   91.2736   11.4464 C.3     1  UNL1        0.0514
     30 C          62.4831   90.4260   10.8550 C.ar    1  UNL1       -0.0203
     31 C          62.8140   89.0894   10.2601 C.ar    1  UNL1       -0.0042
     32 C          61.7269   88.2418    9.6688 C.ar    1  UNL1       -0.0003
     33 C          60.3089   88.7309    9.6722 C.ar    1  UNL1       -0.0000
     34 C          59.9779   90.0675   10.2671 C.ar    1  UNL1       -0.0003
     35 C          61.0651   90.9150   10.8585 C.ar    1  UNL1       -0.0042
@<TRIPOS>BOND
     1    13    14    1
     2    14    15   ar
     3    15    16   ar
     4    16     5    1
     5     5     6   ar
     6     6     7   ar
     7     7     8   ar
     8     8     9    2
     9     8    10   ar
    10    10     1    1
    11     1     2   am
    12     2     3    2
    13     2    20    1
    14    20    29    1
    15    29    30    1
    16    30    31   ar
    17    31    32   ar
    18    32    33   ar
    19    33    34   ar
    20    34    35   ar
    21    20    21    1
    22    21    23    1
    23    23    24    1
    24    24    25   ar
    25    25    26   ar
    26    26    27   ar
    27    27    28   ar
    28    10    11   ar
    29    16    17   ar
    30    17    18   ar
    31    18    19   ar
    32    19    14   ar
    33    11     5   ar
    34    35    30   ar
    35    28    24   ar
    36     7    12    1
    37     1     4    1
    38    21    22    1
@<TRIPOS>MOLECULE
*****
 35 38 0 0 0
SMALL
GASTEIGER

@<TRIPOS>ATOM
      1 N          62.8083   90.0349   11.5699 N.am    1  UNL1       -0.2791
      2 C          63.6692   89.9872   12.7973 C.2     1  UNL1        0.2408
      3 O          63.8365   88.6985   13.5465 O.2     1  UNL1       -0.2733
      4 H          62.6985   90.8807   11.0782 H       1  UNL1        0.1550
      5 C          62.0499   86.2093   10.8354 C.ar    1  UNL1        0.0186
      6 C          60.7273   86.3118   10.1352 C.ar    1  UNL1        0.0747
      7 N          60.0984   87.6553    9.9133 N.ar    1  UNL1       -0.3189
      8 C          60.7920   88.8964   10.3916 C.ar    1  UNL1        0.2712
      9 O          60.1631   90.2399   10.1697 O.2     1  UNL1       -0.2658
     10 C          62.1146   88.7939   11.0917 C.ar    1  UNL1        0.1071
     11 C          62.7436   87.4502   11.3136 C.ar    1  UNL1        0.0210
     12 H          59.2303   87.7226    9.4538 H       1  UNL1        0.1690
     13 C          63.1193   82.2031   13.9671 C.3     1  UNL1        0.0521
     14 C          63.2136   82.8626   12.6231 C.ar    1  UNL1        0.0594
     15 C          62.5846   84.2062   12.4012 C.ar    1  UNL1        0.0148
     16 C          62.6789   84.8656   11.0572 C.ar    1  UNL1        0.0042
     17 C          63.4021   84.1815    9.9352 C.ar    1  UNL1        0.0207
     18 C          64.0310   82.8380   10.1571 C.ar    1  UNL1        0.0984
     19 N          63.9367   82.1785   11.5011 N.ar    1  UNL1       -0.2481
     20 C          64.3629   91.2282   13.2755 C.3     1  UNL1        0.1365
     21 N          64.4966   92.4115   12.3634 N.3     1  UNL1       -0.2860
     22 H          64.9580   93.1461   12.8998 H       1  UNL1        0.1240
     23 C          65.2479   92.2816   11.0717 C.3     1  UNL1        0.1160
     24 C          66.0307   93.4451   10.5391 C.ar    1  UNL1        0.0820
     25 C          65.7954   94.8900   10.8665 C.ar    1  UNL1        0.0530
     26 S          66.8055   95.7059   10.1154 S.2     1  UNL1       -0.0643
     27 C          67.6651   94.7653    9.3239 C.ar    1  UNL1        0.1341
     28 N          67.1862   93.3680    9.5858 N.ar    1  UNL1       -0.2392
     29 C          64.9229   91.2859   14.6659 C.3     1  UNL1        0.0514
     30 C          66.2917   91.8529   14.9001 C.ar    1  UNL1       -0.0203
     31 C          67.4080   91.5349   13.9500 C.ar    1  UNL1       -0.0042
     32 C          68.7767   92.1019   14.1843 C.ar    1  UNL1       -0.0003
     33 C          69.0293   92.9869   15.3687 C.ar    1  UNL1       -0.0000
     34 C          67.9131   93.3049   16.3189 C.ar    1  UNL1       -0.0003
     35 C          66.5443   92.7380   16.0846 C.ar    1  UNL1       -0.0042
@<TRIPOS>BOND
     1    13    14    1
     2    14    15   ar
     3    15    16   ar
     4    16     5    1
     5     5     6   ar
     6     6     7   ar
     7     7     8   ar
     8     8     9    2
     9     8    10   ar
    10    10     1    1
    11     1     2   am
    12     2     3    2
    13     2    20    1
    14    20    29    1
    15    29    30    1
    16    30    31   ar
    17    31    32   ar
    18    32    33   ar
    19    33    34   ar
    20    34    35   ar
    21    20    21    1
    22    21    23    1
    23    23    24    1
    24    24    25   ar
    25    25    26   ar
    26    26    27   ar
    27    27    28   ar
    28    10    11   ar
    29    16    17   ar
    30    17    18   ar
    31    18    19   ar
    32    19    14   ar
    33    11     5   ar
    34    35    30   ar
    35    28    24   ar
    36     7    12    1
    37     1     4    1
    38    21    22    1
@<TRIPOS>MOLECULE
*****
 35 38 0 0 0
SMALL
GASTEIGER

@<TRIPOS>ATOM
      1 N          61.7337   90.1932   11.4328 N.am    1  UNL1       -0.2791
      2 C          61.8618   89.3680   10.1867 C.2     1  UNL1        0.2408
      3 O          63.2133   89.1276    9.5821 O.2     1  UNL1       -0.2733
      4 H          60.8466   90.3509   11.8297 H       1  UNL1        0.1550
      5 C          65.1453   92.1671   11.8959 C.ar    1  UNL1        0.0186
      6 C          65.4037   91.9475   13.3571 C.ar    1  UNL1        0.0747
      7 N          64.4389   91.1432   14.1768 N.ar    1  UNL1       -0.3189
      8 C          63.2154   90.5584   13.5354 C.ar    1  UNL1        0.2712
      9 O          62.2506   89.7540   14.3551 O.2     1  UNL1       -0.2658
     10 C          62.9570   90.7779   12.0742 C.ar    1  UNL1        0.1071
     11 C          63.9220   91.5823   11.2545 C.ar    1  UNL1        0.0210
     12 H          64.6085   90.9991   15.1358 H       1  UNL1        0.1690
     13 C          69.1890   92.3902    8.6403 C.3     1  UNL1        0.0521
     14 C          68.1321   93.0830    9.4484 C.ar    1  UNL1        0.0594
     15 C          67.1671   92.2787   10.2681 C.ar    1  UNL1        0.0148
     16 C          66.1102   92.9715   11.0762 C.ar    1  UNL1        0.0042
     17 C          66.0183   94.4686   11.0645 C.ar    1  UNL1        0.0207
     18 C          66.9832   95.2729   10.2448 C.ar    1  UNL1        0.0984
     19 N          68.0401   94.5801    9.4368 N.ar    1  UNL1       -0.2481
     20 C          60.6385   88.7832    9.5453 C.3     1  UNL1        0.1365
     21 N          59.7789   89.6325    8.6565 N.3     1  UNL1       -0.2860
     22 H          60.2359   90.5417    8.5864 H       1  UNL1        0.1240
     23 C          59.4806   89.1887    7.2551 C.3     1  UNL1        0.1160
     24 C          59.1063   90.1994    6.2120 C.ar    1  UNL1        0.0820
     25 C          60.0591   90.9484    5.3280 C.ar    1  UNL1        0.0530
     26 S          59.2553   91.8506    4.4393 S.2     1  UNL1       -0.0643
     27 C          57.8056   91.6593    4.7739 C.ar    1  UNL1        0.1341
     28 N          57.7136   90.6388    5.8695 N.ar    1  UNL1       -0.2392
     29 C          60.2747   87.3492    9.7926 C.3     1  UNL1        0.0514
     30 C          61.3435   86.2968    9.8114 C.ar    1  UNL1       -0.0203
     31 C          62.0713   85.9444    8.5480 C.ar    1  UNL1       -0.0042
     32 C          63.1399   84.8921    8.5668 C.ar    1  UNL1       -0.0003
     33 C          63.4809   84.1921    9.8489 C.ar    1  UNL1       -0.0000
     34 C          62.7531   84.5445   11.1122 C.ar    1  UNL1       -0.0003
     35 C          61.6844   85.5968   11.0935 C.ar    1  UNL1       -0.0042
@<TRIPOS>BOND
     1    13    14    1
     2    14    15   ar
     3    15    16   ar
     4    16     5    1
     5     5     6   ar
     6     6     7   ar
     7     7     8   ar
     8     8     9    2
     9     8    10   ar
    10    10     1    1
    11     1     2   am
    12     2     3    2
    13     2    20    1
    14    20    29    1
    15    29    30    1
    16    30    31   ar
    17    31    32   ar
    18    32    33   ar
    19    33    34   ar
    20    34    35   ar
    21    20    21    1
    22    21    23    1
    23    23    24    1
    24    24    25   ar
    25    25    26   ar
    26    26    27   ar
    27    27    28   ar
    28    10    11   ar
    29    16    17   ar
    30    17    18   ar
    31    18    19   ar
    32    19    14   ar
    33    11     5   ar
    34    35    30   ar
    35    28    24   ar
    36     7    12    1
    37     1     4    1
    38    21    22    1
@<TRIPOS>MOLECULE
*****
 35 38 0 0 0
SMALL
GASTEIGER

@<TRIPOS>ATOM
      1 N          62.6054   89.3487   11.9996 N.am    1  UNL1       -0.2791
      2 C          62.8329   87.8933   12.2824 C.2     1  UNL1        0.2408
      3 O          63.9828   87.4679   13.1464 O.2     1  UNL1       -0.2733
      4 H          61.8506   89.6279   11.4325 H       1  UNL1        0.1550
      5 C          65.3214   92.2308   12.2590 C.ar    1  UNL1        0.0186
      6 C          65.3729   92.4390   13.7436 C.ar    1  UNL1        0.0747
      7 N          64.5020   91.6171   14.6469 N.ar    1  UNL1       -0.3189
      8 C          63.5794   90.5869   14.0656 C.ar    1  UNL1        0.2712
      9 O          62.7085   89.7651   14.9688 O.2     1  UNL1       -0.2658
     10 C          63.5279   90.3788   12.5810 C.ar    1  UNL1        0.1071
     11 C          64.3989   91.2007   11.6777 C.ar    1  UNL1        0.0210
     12 H          64.5358   91.7537   15.6213 H       1  UNL1        0.1690
     13 C          66.7400   96.8559   10.3626 C.3     1  UNL1        0.0521
     14 C          66.9016   95.3653   10.4076 C.ar    1  UNL1        0.0594
     15 C          66.0307   94.5433   11.3108 C.ar    1  UNL1        0.0148
     16 C          66.1924   93.0527   11.3557 C.ar    1  UNL1        0.0042
     17 C          67.2249   92.3841   10.4975 C.ar    1  UNL1        0.0207
     18 C          68.0959   93.2061    9.5943 C.ar    1  UNL1        0.0984
     19 N          67.9342   94.6966    9.5493 N.ar    1  UNL1       -0.2481
     20 C          61.9104   86.8632   11.7010 C.3     1  UNL1        0.1365
     21 N          61.8007   85.5097   12.3382 N.3     1  UNL1       -0.2860
     22 H          60.9602   85.0732   11.9596 H       1  UNL1        0.1240
     23 C          62.9127   84.5151   12.1824 C.3     1  UNL1        0.1160
     24 C          62.7484   83.1186   12.7046 C.ar    1  UNL1        0.0820
     25 C          62.7766   81.8620   11.8858 C.ar    1  UNL1        0.0530
     26 S          62.5727   80.7002   12.8125 S.2     1  UNL1       -0.0643
     27 C          62.4186   81.2387   14.2040 C.ar    1  UNL1        0.1341
     28 N          62.5272   82.7334   14.1374 N.ar    1  UNL1       -0.2392
     29 C          61.0976   87.1867   10.4826 C.3     1  UNL1        0.0514
     30 C          61.3034   86.4100    9.2158 C.ar    1  UNL1       -0.0203
     31 C          60.1793   86.2665    8.2331 C.ar    1  UNL1       -0.0042
     32 C          60.3852   85.4899    6.9664 C.ar    1  UNL1       -0.0003
     33 C          61.7151   84.8568    6.6825 C.ar    1  UNL1       -0.0000
     34 C          62.8392   85.0004    7.6652 C.ar    1  UNL1       -0.0003
     35 C          62.6333   85.7770    8.9319 C.ar    1  UNL1       -0.0042
@<TRIPOS>BOND
     1    13    14    1
     2    14    15   ar
     3    15    16   ar
     4    16     5    1
     5     5     6   ar
     6     6     7   ar
     7     7     8   ar
     8     8     9    2
     9     8    10   ar
    10    10     1    1
    11     1     2   am
    12     2     3    2
    13     2    20    1
    14    20    29    1
    15    29    30    1
    16    30    31   ar
    17    31    32   ar
    18    32    33   ar
    19    33    34   ar
    20    34    35   ar
    21    20    21    1
    22    21    23    1
    23    23    24    1
    24    24    25   ar
    25    25    26   ar
    26    26    27   ar
    27    27    28   ar
    28    10    11   ar
    29    16    17   ar
    30    17    18   ar
    31    18    19   ar
    32    19    14   ar
    33    11     5   ar
    34    35    30   ar
    35    28    24   ar
    36     7    12    1
    37     1     4    1
    38    21    22    1
@<TRIPOS>MOLECULE
*****
 35 38 0 0 0
SMALL
GASTEIGER

@<TRIPOS>ATOM
      1 N          64.3375   88.5202   14.9623 N.am    1  UNL1       -0.2791
      2 C          63.4460   89.7256   15.0111 C.2     1  UNL1        0.2408
      3 O          61.9998   89.5743   15.3789 O.2     1  UNL1       -0.2733
      4 H          65.2868   88.6195   14.7209 H       1  UNL1        0.1550
      5 C          63.2454   84.7260   14.5602 C.ar    1  UNL1        0.0186
      6 C          62.6730   84.4503   15.9190 C.ar    1  UNL1        0.0747
      7 N          62.6554   85.5311   16.9588 N.ar    1  UNL1       -0.3189
      8 C          63.2103   86.8878   16.6400 C.ar    1  UNL1        0.2712
      9 O          63.1927   87.9687   17.6798 O.2     1  UNL1       -0.2658
     10 C          63.7827   87.1636   15.2812 C.ar    1  UNL1        0.1071
     11 C          63.8003   86.0826   14.2413 C.ar    1  UNL1        0.0210
     12 H          62.2797   85.3501   17.8507 H       1  UNL1        0.1690
     13 C          62.2902   79.8147   13.1581 C.3     1  UNL1        0.0521
     14 C          62.7854   81.1894   12.8193 C.ar    1  UNL1        0.0594
     15 C          62.7678   82.2703   13.8591 C.ar    1  UNL1        0.0148
     16 C          63.2630   83.6451   13.5203 C.ar    1  UNL1        0.0042
     17 C          63.7757   83.9390   12.1416 C.ar    1  UNL1        0.0207
     18 C          63.7933   82.8580   11.1018 C.ar    1  UNL1        0.0984
     19 N          63.2981   81.4833   11.4406 N.ar    1  UNL1       -0.2481
     20 C          64.0009   91.0822   14.6922 C.3     1  UNL1        0.1365
     21 N          63.6708   91.7391   13.3847 N.3     1  UNL1       -0.2860
     22 H          64.1917   92.6156   13.3558 H       1  UNL1        0.1240
     23 C          63.9513   91.0260   12.0952 C.3     1  UNL1        0.1160
     24 C          62.9306   90.0905   11.5182 C.ar    1  UNL1        0.0820
     25 C          61.8732   90.4485   10.5162 C.ar    1  UNL1        0.0530
     26 S          61.0771   89.2120   10.2205 S.2     1  UNL1       -0.0643
     27 C          61.6425   88.0898   11.0398 C.ar    1  UNL1        0.1341
     28 N          62.7880   88.6328   11.8418 N.ar    1  UNL1       -0.2392
     29 C          64.8858   91.7819   15.6808 C.3     1  UNL1        0.0514
     30 C          66.3169   92.0686   15.3348 C.ar    1  UNL1       -0.0203
     31 C          66.8953   91.5547   14.0498 C.ar    1  UNL1       -0.0042
     32 C          68.3264   91.8415   13.7038 C.ar    1  UNL1       -0.0003
     33 C          69.1791   92.6421   14.6429 C.ar    1  UNL1       -0.0000
     34 C          68.6008   93.1560   15.9279 C.ar    1  UNL1       -0.0003
     35 C          67.1697   92.8692   16.2739 C.ar    1  UNL1       -0.0042
@<TRIPOS>BOND
     1    13    14    1
     2    14    15   ar
     3    15    16   ar
     4    16     5    1
     5     5     6   ar
     6     6     7   ar
     7     7     8   ar
     8     8     9    2
     9     8    10   ar
    10    10     1    1
    11     1     2   am
    12     2     3    2
    13     2    20    1
    14    20    29    1
    15    29    30    1
    16    30    31   ar
    17    31    32   ar
    18    32    33   ar
    19    33    34   ar
    20    34    35   ar
    21    20    21    1
    22    21    23    1
    23    23    24    1
    24    24    25   ar
    25    25    26   ar
    26    26    27   ar
    27    27    28   ar
    28    10    11   ar
    29    16    17   ar
    30    17    18   ar
    31    18    19   ar
    32    19    14   ar
    33    11     5   ar
    34    35    30   ar
    35    28    24   ar
    36     7    12    1
    37     1     4    1
    38    21    22    1
@<TRIPOS>MOLECULE
*****
 35 38 0 0 0
SMALL
GASTEIGER

@<TRIPOS>ATOM
      1 N          64.2710   88.9471   13.5601 N.am    1  UNL1       -0.2791
      2 C          63.2152   89.8890   13.0621 C.2     1  UNL1        0.2408
      3 O          61.7787   89.6701   13.4344 O.2     1  UNL1       -0.2733
      4 H          65.2138   89.0908   13.3158 H       1  UNL1        0.1550
      5 C          63.4461   85.2431   14.7219 C.ar    1  UNL1        0.0186
      6 C          63.1291   85.4646   16.1712 C.ar    1  UNL1        0.0747
      7 N          63.1928   86.8468   16.7502 N.ar    1  UNL1       -0.3189
      8 C          63.5734   88.0077   15.8798 C.ar    1  UNL1        0.2712
      9 O          63.6370   89.3900   16.4587 O.2     1  UNL1       -0.2658
     10 C          63.8904   87.7863   14.4305 C.ar    1  UNL1        0.1071
     11 C          63.8267   86.4039   13.8516 C.ar    1  UNL1        0.0210
     12 H          62.9847   86.9922   17.7014 H       1  UNL1        0.1690
     13 C          60.9839   80.6992   14.1828 C.3     1  UNL1        0.0521
     14 C          62.1513   81.5888   13.8735 C.ar    1  UNL1        0.0594
     15 C          62.2150   82.9711   14.4523 C.ar    1  UNL1        0.0148
     16 C          63.3824   83.8607   14.1430 C.ar    1  UNL1        0.0042
     17 C          64.4862   83.3680   13.2548 C.ar    1  UNL1        0.0207
     18 C          64.4225   81.9857   12.6760 C.ar    1  UNL1        0.0984
     19 N          63.2551   81.0961   12.9853 N.ar    1  UNL1       -0.2481
     20 C          63.5958   91.0498   12.1917 C.3     1  UNL1        0.1365
     21 N          64.3754   92.1949   12.7672 N.3     1  UNL1       -0.2860
     22 H          64.3142   92.1122   13.7820 H       1  UNL1        0.1240
     23 C          65.8286   92.3561   12.4327 C.3     1  UNL1        0.1160
     24 C          66.8272   92.5991   13.5253 C.ar    1  UNL1        0.0820
     25 C          66.6156   93.4550   14.7389 C.ar    1  UNL1        0.0530
     26 S          67.8703   93.4137   15.5598 S.2     1  UNL1       -0.0643
     27 C          68.8575   92.5323   14.8536 C.ar    1  UNL1        0.1341
     28 N          68.2128   92.0288   13.5962 N.ar    1  UNL1       -0.2392
     29 C          63.1969   91.0656   10.7458 C.3     1  UNL1        0.0514
     30 C          62.3058   89.9885   10.2018 C.ar    1  UNL1       -0.0203
     31 C          62.8044   88.5766   10.1125 C.ar    1  UNL1       -0.0042
     32 C          61.9133   87.4996    9.5685 C.ar    1  UNL1       -0.0003
     33 C          60.5236   87.8345    9.1138 C.ar    1  UNL1       -0.0000
     34 C          60.0251   89.2464    9.2031 C.ar    1  UNL1       -0.0003
     35 C          60.9162   90.3234    9.7471 C.ar    1  UNL1       -0.0042
@<TRIPOS>BOND
     1    13    14    1
     2    14    15   ar
     3    15    16   ar
     4    16     5    1
     5     5     6   ar
     6     6     7   ar
     7     7     8   ar
     8     8     9    2
     9     8    10   ar
    10    10     1    1
    11     1     2   am
    12     2     3    2
    13     2    20    1
    14    20    29    1
    15    29    30    1
    16    30    31   ar
    17    31    32   ar
    18    32    33   ar
    19    33    34   ar
    20    34    35   ar
    21    20    21    1
    22    21    23    1
    23    23    24    1
    24    24    25   ar
    25    25    26   ar
    26    26    27   ar
    27    27    28   ar
    28    10    11   ar
    29    16    17   ar
    30    17    18   ar
    31    18    19   ar
    32    19    14   ar
    33    11     5   ar
    34    35    30   ar
    35    28    24   ar
    36     7    12    1
    37     1     4    1
    38    21    22    1
