@<TRIPOS>MOLECULE
*****
 28 31 0 0 0
SMALL
GASTEIGER

@<TRIPOS>ATOM
      1 C          63.0908   90.4910   11.8769 C.2     1  UNL1        0.3270
      2 N          63.6015   91.5830   10.9844 N.2     1  UNL1       -0.0380
      3 C          64.8046   92.1933   11.6404 C.2     1  UNL1        0.2637
      4 C          65.7181   93.3075   11.2236 C.2     1  UNL1        0.2821
      5 N          66.8645   93.7070   12.1047 N.2     1  UNL1       -0.0268
      6 C          67.0972   92.9921   13.4027 C.2     1  UNL1        0.3760
      7 N          68.1368   93.1632   14.4704 N.2     1  UNL1       -0.0306
      8 C          67.8656   92.1547   15.5472 C.2     1  UNL1        0.2361
      9 C          66.6585   91.3603   15.1449 C.2     1  UNL1        0.0583
     10 C          66.1836   91.8778   13.8195 C.2     1  UNL1        0.1203
     11 C          65.0373   91.4784   12.9384 C.3     1  UNL1        0.2596
     12 N          63.9781   90.4264   13.0846 N.pl3   1  UNL1       -0.1887
     13 C          63.8319   89.4765   14.2362 C.3     1  UNL1        0.1619
     14 C          63.3036   89.8168   15.5983 C.3     1  UNL1        0.0480
     15 C          63.3336   88.5701   16.4318 C.3     1  UNL1        0.0200
     16 C          63.8804   87.4593   15.5849 C.3     1  UNL1        0.0583
     17 C          64.1884   88.0194   14.2280 C.3     1  UNL1        0.0623
     18 N          64.0835   86.0378   16.0189 N.3     1  UNL1       -0.2913
     19 H          63.7318   85.9684   16.9739 H       1  UNL1        0.1235
     20 C          63.4532   84.9195   15.2430 C.3     1  UNL1        0.1731
     21 C          64.0913   84.4334   13.9755 C.3     1  UNL1        0.4118
     22 F          64.7294   83.9474   12.7080 F       1  UNL1       -0.1685
     23 F          65.4466   84.7418   14.5395 F       1  UNL1       -0.1685
     24 F          62.7360   84.1251   13.4115 F       1  UNL1       -0.1685
     25 C          61.9515   88.5994   10.5081 C.3     1  UNL1        0.0450
     26 C          61.9015   89.6172   11.6088 C.3     1  UNL1        0.2165
     27 O          60.6622   89.7610   12.4415 O.3     1  UNL1       -0.3737
     28 H          60.7961   90.4579   13.1028 H       1  UNL1        0.2111
@<TRIPOS>BOND
     1    26    25    1
     2    26    27    1
     3    26     1    1
     4     1     2    2
     5     2     3    1
     6     3     4    2
     7     4     5    1
     8     5     6    2
     9     6     7    1
    10     7     8    2
    11     8     9    1
    12     9    10    2
    13    10    11    1
    14    11    12    1
    15    13    12    1
    16    13    14    1
    17    14    15    1
    18    15    16    1
    19    16    18    1
    20    18    20    1
    21    20    21    1
    22    21    22    1
    23    21    23    1
    24    21    24    1
    25    16    17    1
    26    12     1    1
    27    17    13    1
    28    11     3    1
    29    10     6    1
    30    27    28    1
    31    18    19    1
@<TRIPOS>MOLECULE
*****
 28 31 0 0 0
SMALL
GASTEIGER

@<TRIPOS>ATOM
      1 C          65.7127   92.0558   14.3437 C.2     1  UNL1        0.3270
      2 N          65.9216   92.8596   13.0946 N.2     1  UNL1       -0.0380
      3 C          65.0037   92.3207   12.0376 C.2     1  UNL1        0.2637
      4 C          64.7744   92.7182   10.6097 C.2     1  UNL1        0.2821
      5 N          63.7688   91.9790    9.7775 N.2     1  UNL1       -0.0268
      6 C          62.9926   90.8422   10.3734 C.2     1  UNL1        0.3760
      7 N          61.9434   89.9350    9.8024 N.2     1  UNL1       -0.0306
      8 C          61.5242   88.9767   10.8776 C.2     1  UNL1        0.2361
      9 C          62.3144   89.2917   12.1131 C.2     1  UNL1        0.0583
     10 C          63.2219   90.4447   11.8015 C.2     1  UNL1        0.1203
     11 C          64.2275   91.1839   12.6336 C.3     1  UNL1        0.2596
     12 N          64.6656   91.0202   14.0588 N.pl3   1  UNL1       -0.1887
     13 C          64.1477   90.0000   15.0288 C.3     1  UNL1        0.1619
     14 C          63.4443   90.2899   16.3216 C.3     1  UNL1        0.0480
     15 C          63.1041   88.9799   16.9681 C.3     1  UNL1        0.0200
     16 C          63.5972   87.8803   16.0750 C.3     1  UNL1        0.0583
     17 C          64.2422   88.5107   14.8764 C.3     1  UNL1        0.0623
     18 N          63.4680   86.4086   16.3348 N.3     1  UNL1       -0.2913
     19 H          62.4706   86.1952   16.3301 H       1  UNL1        0.1235
     20 C          64.1259   85.4239   15.4142 C.3     1  UNL1        0.1731
     21 C          63.2984   84.6409   14.4384 C.3     1  UNL1        0.4118
     22 F          62.4709   83.8580   13.4626 F       1  UNL1       -0.1685
     23 F          63.6957   85.5859   13.3433 F       1  UNL1       -0.1685
     24 F          62.9012   83.6960   15.5334 F       1  UNL1       -0.1685
     25 C          67.8788   91.9015   15.7699 C.3     1  UNL1        0.0450
     26 C          66.4256   92.2531   15.6486 C.3     1  UNL1        0.2165
     27 O          65.6854   92.8019   16.8322 O.3     1  UNL1       -0.3737
     28 H          64.7634   92.9745   16.5853 H       1  UNL1        0.2111
@<TRIPOS>BOND
     1    26    25    1
     2    26    27    1
     3    26     1    1
     4     1     2    2
     5     2     3    1
     6     3     4    2
     7     4     5    1
     8     5     6    2
     9     6     7    1
    10     7     8    2
    11     8     9    1
    12     9    10    2
    13    10    11    1
    14    11    12    1
    15    13    12    1
    16    13    14    1
    17    14    15    1
    18    15    16    1
    19    16    18    1
    20    18    20    1
    21    20    21    1
    22    21    22    1
    23    21    23    1
    24    21    24    1
    25    16    17    1
    26    12     1    1
    27    17    13    1
    28    11     3    1
    29    10     6    1
    30    27    28    1
    31    18    19    1
@<TRIPOS>MOLECULE
*****
 28 31 0 0 0
SMALL
GASTEIGER

@<TRIPOS>ATOM
      1 C          64.0013   90.2453   15.0946 C.2     1  UNL1        0.3270
      2 N          64.9058   91.1761   15.8466 N.2     1  UNL1       -0.0380
      3 C          65.5453   92.1026   14.8552 C.2     1  UNL1        0.2637
      4 C          66.5254   93.2261   15.0188 C.2     1  UNL1        0.2821
      5 N          66.9964   93.9915   13.8178 N.2     1  UNL1       -0.0268
      6 C          66.4871   93.6333   12.4531 C.2     1  UNL1        0.3760
      7 N          66.7689   94.2040   11.0949 N.2     1  UNL1       -0.0306
      8 C          65.9629   93.4332   10.0919 C.2     1  UNL1        0.2361
      9 C          65.1829   92.3860   10.8302 C.2     1  UNL1        0.0583
     10 C          65.5068   92.5097   12.2896 C.2     1  UNL1        0.1203
     11 C          65.0359   91.7444   13.4906 C.3     1  UNL1        0.2596
     12 N          64.0818   90.5965   13.6385 N.pl3   1  UNL1       -0.1887
     13 C          63.3385   89.9188   12.5258 C.3     1  UNL1        0.1619
     14 C          62.5384   90.6012   11.4561 C.3     1  UNL1        0.0480
     15 C          61.9702   89.5439   10.5566 C.3     1  UNL1        0.0200
     16 C          62.4191   88.2080   11.0703 C.3     1  UNL1        0.0583
     17 C          63.2648   88.4397   12.2874 C.3     1  UNL1        0.0623
     18 N          62.0816   86.8745   10.4720 N.3     1  UNL1       -0.2913
     19 H          61.7729   86.2772   11.2390 H       1  UNL1        0.1235
     20 C          61.0375   86.7764    9.3995 C.3     1  UNL1        0.1731
     21 C          61.3218   86.0059    8.1443 C.3     1  UNL1        0.4118
     22 F          61.6060   85.2354    6.8891 F       1  UNL1       -0.1685
     23 F          62.7942   86.1252    8.4045 F       1  UNL1       -0.1685
     24 F          59.8494   85.8865    7.8841 F       1  UNL1       -0.1685
     25 C          63.7435   87.7853   15.8897 C.3     1  UNL1        0.0450
     26 C          63.1636   89.1547   15.6936 C.3     1  UNL1        0.2165
     27 O          61.7459   89.4336   16.0966 O.3     1  UNL1       -0.3737
     28 H          61.5311   90.3596   15.9036 H       1  UNL1        0.2111
@<TRIPOS>BOND
     1    26    25    1
     2    26    27    1
     3    26     1    1
     4     1     2    2
     5     2     3    1
     6     3     4    2
     7     4     5    1
     8     5     6    2
     9     6     7    1
    10     7     8    2
    11     8     9    1
    12     9    10    2
    13    10    11    1
    14    11    12    1
    15    13    12    1
    16    13    14    1
    17    14    15    1
    18    15    16    1
    19    16    18    1
    20    18    20    1
    21    20    21    1
    22    21    22    1
    23    21    23    1
    24    21    24    1
    25    16    17    1
    26    12     1    1
    27    17    13    1
    28    11     3    1
    29    10     6    1
    30    27    28    1
    31    18    19    1
@<TRIPOS>MOLECULE
*****
 28 31 0 0 0
SMALL
GASTEIGER

@<TRIPOS>ATOM
      1 C          63.3205   84.1594   12.2959 C.2     1  UNL1        0.3270
      2 N          63.8836   84.5319   13.6354 N.2     1  UNL1       -0.0380
      3 C          63.8707   86.0280   13.7439 C.2     1  UNL1        0.2637
      4 C          64.3051   86.9588   14.8368 C.2     1  UNL1        0.2821
      5 N          64.1685   88.4418   14.6575 N.2     1  UNL1       -0.0268
      6 C          63.5973   88.9938   13.3851 C.2     1  UNL1        0.3760
      7 N          63.3429   90.3989   12.9257 N.2     1  UNL1       -0.0306
      8 C          62.7512   90.3364   11.5488 C.2     1  UNL1        0.2361
      9 C          62.6399   88.8927   11.1571 C.2     1  UNL1        0.0583
     10 C          63.1628   88.0629   12.2921 C.2     1  UNL1        0.1203
     11 C          63.2995   86.5800   12.4715 C.3     1  UNL1        0.2596
     12 N          62.9595   85.4251   11.5766 N.pl3   1  UNL1       -0.1887
     13 C          62.3631   85.5195   10.2035 C.3     1  UNL1        0.1619
     14 C          63.0821   85.2696    8.9109 C.3     1  UNL1        0.0480
     15 C          62.1065   85.4760    7.7905 C.3     1  UNL1        0.0200
     16 C          60.7846   85.8534    8.3905 C.3     1  UNL1        0.0583
     17 C          60.9431   85.8803    9.8818 C.3     1  UNL1        0.0623
     18 N          59.5250   86.1516    7.6322 N.3     1  UNL1       -0.2913
     19 H          58.8304   85.4689    7.9350 H       1  UNL1        0.1235
     20 C          58.8830   87.5024    7.7463 C.3     1  UNL1        0.1731
     21 C          59.6963   88.6850    8.1823 C.3     1  UNL1        0.4118
     22 F          60.5096   89.8675    8.6183 F       1  UNL1       -0.1685
     23 F          59.9595   89.0330    6.7472 F       1  UNL1       -0.1685
     24 F          59.4331   88.3369    9.6174 F       1  UNL1       -0.1685
     25 C          63.9699   82.2980   10.6037 C.3     1  UNL1        0.0450
     26 C          63.1486   82.7657   11.7685 C.3     1  UNL1        0.2165
     27 O          62.1553   81.8399   12.4058 O.3     1  UNL1       -0.3737
     28 H          61.7126   82.2955   13.1388 H       1  UNL1        0.2111
@<TRIPOS>BOND
     1    26    25    1
     2    26    27    1
     3    26     1    1
     4     1     2    2
     5     2     3    1
     6     3     4    2
     7     4     5    1
     8     5     6    2
     9     6     7    1
    10     7     8    2
    11     8     9    1
    12     9    10    2
    13    10    11    1
    14    11    12    1
    15    13    12    1
    16    13    14    1
    17    14    15    1
    18    15    16    1
    19    16    18    1
    20    18    20    1
    21    20    21    1
    22    21    22    1
    23    21    23    1
    24    21    24    1
    25    16    17    1
    26    12     1    1
    27    17    13    1
    28    11     3    1
    29    10     6    1
    30    27    28    1
    31    18    19    1
@<TRIPOS>MOLECULE
*****
 28 31 0 0 0
SMALL
GASTEIGER

@<TRIPOS>ATOM
      1 C          63.2206   87.1474   12.5432 C.2     1  UNL1        0.3270
      2 N          63.7031   86.8187   13.9249 N.2     1  UNL1       -0.0380
      3 C          63.7087   85.3258   14.0710 C.2     1  UNL1        0.2637
      4 C          64.0881   84.4305   15.2131 C.2     1  UNL1        0.2821
      5 N          63.9884   82.9412   15.0638 N.2     1  UNL1       -0.0268
      6 C          63.5093   82.3473   13.7724 C.2     1  UNL1        0.3760
      7 N          63.3088   80.9268   13.3342 N.2     1  UNL1       -0.0306
      8 C          62.8054   80.9443   11.9213 C.2     1  UNL1        0.2361
      9 C          62.6949   82.3756   11.4862 C.2     1  UNL1        0.0583
     10 C          63.1299   83.2427   12.6303 C.2     1  UNL1        0.1203
     11 C          63.2296   84.7319   12.7796 C.3     1  UNL1        0.2596
     12 N          62.9280   85.8577   11.8354 N.pl3   1  UNL1       -0.1887
     13 C          62.4224   85.7184   10.4301 C.3     1  UNL1        0.1619
     14 C          63.2200   85.2522    9.2482 C.3     1  UNL1        0.0480
     15 C          62.3211   85.2664    8.0476 C.3     1  UNL1        0.0200
     16 C          60.9679   85.7414    8.4873 C.3     1  UNL1        0.0583
     17 C          61.0305   86.0207    9.9597 C.3     1  UNL1        0.0623
     18 N          59.7635   85.9078    7.6087 N.3     1  UNL1       -0.2913
     19 H          59.1864   85.0770    7.7396 H       1  UNL1        0.1235
     20 C          58.8625   87.0936    7.7880 C.3     1  UNL1        0.1731
     21 C          59.4168   88.4820    7.6651 C.3     1  UNL1        0.4118
     22 F          59.9711   89.8704    7.5423 F       1  UNL1       -0.1685
     23 F          59.2806   88.4044    6.1734 F       1  UNL1       -0.1685
     24 F          59.5530   88.5596    9.1569 F       1  UNL1       -0.1685
     25 C          63.4849   89.7224   12.7656 C.3     1  UNL1        0.0450
     26 C          63.0591   88.5241   11.9701 C.3     1  UNL1        0.2165
     27 O          62.4719   88.7026   10.6014 O.3     1  UNL1       -0.3737
     28 H          62.2523   87.8346   10.2281 H       1  UNL1        0.2111
@<TRIPOS>BOND
     1    26    25    1
     2    26    27    1
     3    26     1    1
     4     1     2    2
     5     2     3    1
     6     3     4    2
     7     4     5    1
     8     5     6    2
     9     6     7    1
    10     7     8    2
    11     8     9    1
    12     9    10    2
    13    10    11    1
    14    11    12    1
    15    13    12    1
    16    13    14    1
    17    14    15    1
    18    15    16    1
    19    16    18    1
    20    18    20    1
    21    20    21    1
    22    21    22    1
    23    21    23    1
    24    21    24    1
    25    16    17    1
    26    12     1    1
    27    17    13    1
    28    11     3    1
    29    10     6    1
    30    27    28    1
    31    18    19    1
@<TRIPOS>MOLECULE
*****
 28 31 0 0 0
SMALL
GASTEIGER

@<TRIPOS>ATOM
      1 C          61.2105   87.0135    8.9285 C.2     1  UNL1        0.3270
      2 N          60.9404   88.4881    8.8778 N.2     1  UNL1       -0.0380
      3 C          61.5789   89.1180   10.0802 C.2     1  UNL1        0.2637
      4 C          61.6410   90.5395   10.5548 C.2     1  UNL1        0.2821
      5 N          62.3677   90.8757   11.8233 N.2     1  UNL1       -0.0268
      6 C          63.0323   89.7903   12.6171 C.2     1  UNL1        0.3760
      7 N          63.8154   89.8182   13.8961 N.2     1  UNL1       -0.0306
      8 C          64.2374   88.4139   14.2119 C.2     1  UNL1        0.2361
      9 C          63.7151   87.5180   13.1281 C.2     1  UNL1        0.0583
     10 C          62.9703   88.3687   12.1424 C.2     1  UNL1        0.1203
     11 C          62.2436   88.0325   10.8740 C.3     1  UNL1        0.2596
     12 N          62.0159   86.7319   10.1622 N.pl3   1  UNL1       -0.1887
     13 C          62.5072   85.3861   10.6062 C.3     1  UNL1        0.1619
     14 C          63.4508   84.4984    9.8500 C.3     1  UNL1        0.0480
     15 C          63.6680   83.2553   10.6607 C.3     1  UNL1        0.0200
     16 C          62.8588   83.3746   11.9180 C.3     1  UNL1        0.0583
     17 C          62.1414   84.6915   11.8844 C.3     1  UNL1        0.0623
     18 N          62.7807   82.3558   13.0163 N.3     1  UNL1       -0.2913
     19 H          62.9483   81.4461   12.5865 H       1  UNL1        0.1235
     20 C          63.7013   82.4533   14.1965 C.3     1  UNL1        0.1731
     21 C          63.8757   83.7637   14.9054 C.3     1  UNL1        0.4118
     22 F          64.0501   85.0741   15.6142 F       1  UNL1       -0.1685
     23 F          62.5726   83.5520   15.6174 F       1  UNL1       -0.1685
     24 F          65.1788   83.9755   14.1933 F       1  UNL1       -0.1685
     25 C          61.7640   85.1719    7.1815 C.3     1  UNL1        0.0450
     26 C          60.7551   85.9987    7.9222 C.3     1  UNL1        0.2165
     27 O          59.2909   85.8107    7.6565 O.3     1  UNL1       -0.3737
     28 H          58.7804   86.4185    8.2142 H       1  UNL1        0.2111
@<TRIPOS>BOND
     1    26    25    1
     2    26    27    1
     3    26     1    1
     4     1     2    2
     5     2     3    1
     6     3     4    2
     7     4     5    1
     8     5     6    2
     9     6     7    1
    10     7     8    2
    11     8     9    1
    12     9    10    2
    13    10    11    1
    14    11    12    1
    15    13    12    1
    16    13    14    1
    17    14    15    1
    18    15    16    1
    19    16    18    1
    20    18    20    1
    21    20    21    1
    22    21    22    1
    23    21    23    1
    24    21    24    1
    25    16    17    1
    26    12     1    1
    27    17    13    1
    28    11     3    1
    29    10     6    1
    30    27    28    1
    31    18    19    1
@<TRIPOS>MOLECULE
*****
 28 31 0 0 0
SMALL
GASTEIGER

@<TRIPOS>ATOM
      1 C          60.9702   86.9372    8.7231 C.2     1  UNL1        0.3270
      2 N          60.5195   88.3677    8.6965 N.2     1  UNL1       -0.0380
      3 C          61.1328   89.0689    9.8721 C.2     1  UNL1        0.2637
      4 C          61.0430   90.4864   10.3541 C.2     1  UNL1        0.2821
      5 N          61.7829   90.9070   11.5893 N.2     1  UNL1       -0.0268
      6 C          62.6127   89.9099   12.3425 C.2     1  UNL1        0.3760
      7 N          63.4468   90.0314   13.5832 N.2     1  UNL1       -0.0306
      8 C          64.0522   88.6889   13.8680 C.2     1  UNL1        0.2361
      9 C          63.5922   87.7377   12.8033 C.2     1  UNL1        0.0583
     10 C          62.7025   88.4923   11.8605 C.2     1  UNL1        0.1203
     11 C          61.9626   88.0718   10.6253 C.3     1  UNL1        0.2596
     12 N          61.8621   86.7544    9.9152 N.pl3   1  UNL1       -0.1887
     13 C          62.5352   85.4782   10.3251 C.3     1  UNL1        0.1619
     14 C          63.4309   84.6377    9.4640 C.3     1  UNL1        0.0480
     15 C          63.8801   83.4585   10.2748 C.3     1  UNL1        0.0200
     16 C          63.2622   83.5701   11.6370 C.3     1  UNL1        0.0583
     17 C          62.4310   84.8183   11.6681 C.3     1  UNL1        0.0623
     18 N          63.4436   82.6030   12.7694 N.3     1  UNL1       -0.2913
     19 H          63.0933   83.0639   13.6092 H       1  UNL1        0.1235
     20 C          62.7935   81.2524   12.7135 C.3     1  UNL1        0.1731
     21 C          61.6579   80.9278   13.6382 C.3     1  UNL1        0.4118
     22 F          60.5223   80.6033   14.5628 F       1  UNL1       -0.1685
     23 F          61.5472   82.3766   14.0106 F       1  UNL1       -0.1685
     24 F          61.7687   79.4791   13.2657 F       1  UNL1       -0.1685
     25 C          61.6639   85.0731    7.0517 C.3     1  UNL1        0.0450
     26 C          60.5948   85.8760    7.7317 C.3     1  UNL1        0.2165
     27 O          59.1504   85.6178    7.4202 O.3     1  UNL1       -0.3737
     28 H          58.5949   86.2183    7.9414 H       1  UNL1        0.2111
@<TRIPOS>BOND
     1    26    25    1
     2    26    27    1
     3    26     1    1
     4     1     2    2
     5     2     3    1
     6     3     4    2
     7     4     5    1
     8     5     6    2
     9     6     7    1
    10     7     8    2
    11     8     9    1
    12     9    10    2
    13    10    11    1
    14    11    12    1
    15    13    12    1
    16    13    14    1
    17    14    15    1
    18    15    16    1
    19    16    18    1
    20    18    20    1
    21    20    21    1
    22    21    22    1
    23    21    23    1
    24    21    24    1
    25    16    17    1
    26    12     1    1
    27    17    13    1
    28    11     3    1
    29    10     6    1
    30    27    28    1
    31    18    19    1
@<TRIPOS>MOLECULE
*****
 28 31 0 0 0
SMALL
GASTEIGER

@<TRIPOS>ATOM
      1 C          62.2749   89.0649   11.0207 C.2     1  UNL1        0.3270
      2 N          61.8901   87.8028   10.3071 N.2     1  UNL1       -0.0380
      3 C          62.3643   86.6419   11.1303 C.2     1  UNL1        0.2637
      4 C          62.2664   85.1594   10.9248 C.2     1  UNL1        0.2821
      5 N          62.8464   84.2213   11.9415 N.2     1  UNL1       -0.0268
      6 C          63.5242   84.7659   13.1638 C.2     1  UNL1        0.3760
      7 N          64.1847   84.0917   14.3297 N.2     1  UNL1       -0.0306
      8 C          64.6907   85.1577   15.2557 C.2     1  UNL1        0.2361
      9 C          64.3430   86.4907   14.6622 C.2     1  UNL1        0.0583
     10 C          63.6221   86.2486   13.3692 C.2     1  UNL1        0.1203
     11 C          63.0421   87.1866   12.3525 C.3     1  UNL1        0.2596
     12 N          62.9869   88.6840   12.2848 N.pl3   1  UNL1       -0.1887
     13 C          63.5456   89.6338   13.3024 C.3     1  UNL1        0.1619
     14 C          63.1001   89.7595   14.7293 C.3     1  UNL1        0.0480
     15 C          63.9270   90.8281   15.3806 C.3     1  UNL1        0.0200
     16 C          64.8835   91.3629   14.3564 C.3     1  UNL1        0.0583
     17 C          64.6478   90.6248   13.0720 C.3     1  UNL1        0.0623
     18 N          65.8977   92.4458   14.5777 N.3     1  UNL1       -0.2913
     19 H          65.4221   93.1970   15.0775 H       1  UNL1        0.1235
     20 C          67.1570   92.1499   15.3372 C.3     1  UNL1        0.1731
     21 C          68.0726   93.2691   15.7362 C.3     1  UNL1        0.4118
     22 F          68.9882   94.3882   16.1352 F       1  UNL1       -0.1685
     23 F          67.2674   94.2239   14.9057 F       1  UNL1       -0.1685
     24 F          68.8778   92.3142   16.5667 F       1  UNL1       -0.1685
     25 C          63.1277   91.3480   10.1205 C.3     1  UNL1        0.0450
     26 C          61.9966   90.4624   10.5523 C.3     1  UNL1        0.2165
     27 O          60.5871   90.9744   10.5157 O.3     1  UNL1       -0.3737
     28 H          59.9832   90.2811   10.8246 H       1  UNL1        0.2111
@<TRIPOS>BOND
     1    26    25    1
     2    26    27    1
     3    26     1    1
     4     1     2    2
     5     2     3    1
     6     3     4    2
     7     4     5    1
     8     5     6    2
     9     6     7    1
    10     7     8    2
    11     8     9    1
    12     9    10    2
    13    10    11    1
    14    11    12    1
    15    13    12    1
    16    13    14    1
    17    14    15    1
    18    15    16    1
    19    16    18    1
    20    18    20    1
    21    20    21    1
    22    21    22    1
    23    21    23    1
    24    21    24    1
    25    16    17    1
    26    12     1    1
    27    17    13    1
    28    11     3    1
    29    10     6    1
    30    27    28    1
    31    18    19    1
@<TRIPOS>MOLECULE
*****
 28 31 0 0 0
SMALL
GASTEIGER

@<TRIPOS>ATOM
      1 C          63.9111   86.1841   13.8768 C.2     1  UNL1        0.3270
      2 N          63.4160   85.2401   12.8215 N.2     1  UNL1       -0.0380
      3 C          62.7437   86.0505   11.7531 C.2     1  UNL1        0.2637
      4 C          62.0694   85.6594   10.4717 C.2     1  UNL1        0.2821
      5 N          61.4746   86.7132    9.5851 N.2     1  UNL1       -0.0268
      6 C          61.5543   88.1580    9.9802 C.2     1  UNL1        0.3760
      7 N          61.0631   89.4091    9.3143 N.2     1  UNL1       -0.0306
      8 C          61.4339   90.5734   10.1843 C.2     1  UNL1        0.2361
      9 C          62.1543   90.0419   11.3879 C.2     1  UNL1        0.0583
     10 C          62.2287   88.5491   11.2617 C.2     1  UNL1        0.1203
     11 C          62.8234   87.4953   12.1482 C.3     1  UNL1        0.2596
     12 N          63.5449   87.5779   13.4607 N.pl3   1  UNL1       -0.1887
     13 C          63.8471   88.8337   14.2232 C.3     1  UNL1        0.1619
     14 C          63.3042   89.1978   15.5733 C.3     1  UNL1        0.0480
     15 C          63.8668   90.5351   15.9539 C.3     1  UNL1        0.0200
     16 C          64.7575   90.9976   14.8392 C.3     1  UNL1        0.0583
     17 C          64.7453   89.9461   13.7695 C.3     1  UNL1        0.0623
     18 N          65.5255   92.2856   14.8008 N.3     1  UNL1       -0.2913
     19 H          64.8466   93.0284   14.6346 H       1  UNL1        0.1235
     20 C          66.3454   92.7053   15.9847 C.3     1  UNL1        0.1731
     21 C          67.7590   93.1684   15.7917 C.3     1  UNL1        0.4118
     22 F          69.1726   93.6315   15.5988 F       1  UNL1       -0.1685
     23 F          68.2307   92.1383   16.7747 F       1  UNL1       -0.1685
     24 F          67.2873   94.1985   14.8087 F       1  UNL1       -0.1685
     25 C          63.8927   85.6354   16.4162 C.3     1  UNL1        0.0450
     26 C          64.6438   85.8014   15.1285 C.3     1  UNL1        0.2165
     27 O          66.1277   85.5849   15.0924 O.3     1  UNL1       -0.3737
     28 H          66.4540   85.7313   14.1908 H       1  UNL1        0.2111
@<TRIPOS>BOND
     1    26    25    1
     2    26    27    1
     3    26     1    1
     4     1     2    2
     5     2     3    1
     6     3     4    2
     7     4     5    1
     8     5     6    2
     9     6     7    1
    10     7     8    2
    11     8     9    1
    12     9    10    2
    13    10    11    1
    14    11    12    1
    15    13    12    1
    16    13    14    1
    17    14    15    1
    18    15    16    1
    19    16    18    1
    20    18    20    1
    21    20    21    1
    22    21    22    1
    23    21    23    1
    24    21    24    1
    25    16    17    1
    26    12     1    1
    27    17    13    1
    28    11     3    1
    29    10     6    1
    30    27    28    1
    31    18    19    1
