@<TRIPOS>MOLECULE
*****
 22 24 0 0 0
SMALL
GASTEIGER

@<TRIPOS>ATOM
      1 C          62.0481   86.7711   10.8886 C.3     1  UNL1        0.0846
      2 N          62.4596   88.2032   11.0615 N.3     1  UNL1       -0.2676
      3 C          62.1981   89.1959    9.9678 C.3     1  UNL1        0.0896
      4 C          62.6094   90.6280   10.1406 C.3     1  UNL1        0.0862
      5 N          63.2823   91.0674   11.4071 N.3     1  UNL1       -0.2951
      6 C          63.5438   90.0747   12.5008 C.3     1  UNL1        0.0862
      7 C          63.1324   88.6426   12.3280 C.3     1  UNL1        0.0896
      8 H          62.7010   91.8026   11.8096 H       1  UNL1        0.1233
      9 C          61.8282   86.2148    9.5131 C.ar    1  UNL1       -0.0075
     10 C          62.9607   85.5601    8.7789 C.ar    1  UNL1       -0.0030
     11 C          62.7407   85.0037    7.4033 C.ar    1  UNL1       -0.0003
     12 C          61.3883   85.1021    6.7620 C.ar    1  UNL1       -0.0000
     13 C          60.2559   85.7567    7.4961 C.ar    1  UNL1       -0.0003
     14 C          60.4758   86.3131    8.8716 C.ar    1  UNL1       -0.0030
     15 C          61.8567   85.8954   12.0913 C.3     1  UNL1        0.0477
     16 CL         64.0259   85.8796   14.1635 Cl      1  UNL1       -0.0826
     17 C          63.7948   84.6676   13.3104 C.ar    1  UNL1        0.0537
     18 C          64.6483   83.4478   13.4935 C.ar    1  UNL1        0.0111
     19 C          64.4172   82.2359   12.6404 C.ar    1  UNL1        0.0008
     20 C          63.3326   82.2437   11.6043 C.ar    1  UNL1       -0.0003
     21 C          62.4791   83.4635   11.4212 C.ar    1  UNL1       -0.0034
     22 C          62.7102   84.6755   12.2743 C.ar    1  UNL1       -0.0099
@<TRIPOS>BOND
     1    16    17    1
     2    17    18   ar
     3    18    19   ar
     4    19    20   ar
     5    20    21   ar
     6    21    22   ar
     7    22    15    1
     8    15     1    1
     9     1     9    1
    10     9    10   ar
    11    10    11   ar
    12    11    12   ar
    13    12    13   ar
    14    13    14   ar
    15     1     2    1
    16     2     3    1
    17     3     4    1
    18     4     5    1
    19     5     6    1
    20     6     7    1
    21    22    17   ar
    22    14     9   ar
    23     7     2    1
    24     5     8    1
@<TRIPOS>MOLECULE
*****
 22 24 0 0 0
SMALL
GASTEIGER

@<TRIPOS>ATOM
      1 C          63.5550   85.1132   13.1796 C.3     1  UNL1        0.0846
      2 N          63.2808   83.6618   13.4411 N.3     1  UNL1       -0.2676
      3 C          62.0387   83.2538   14.1765 C.3     1  UNL1        0.0896
      4 C          61.7644   81.8025   14.4380 C.3     1  UNL1        0.0862
      5 N          62.7323   80.7592   13.9641 N.3     1  UNL1       -0.2951
      6 C          63.9744   81.1671   13.2288 C.3     1  UNL1        0.0862
      7 C          64.2486   82.6184   12.9673 C.3     1  UNL1        0.0896
      8 H          62.2141   80.1367   13.3441 H       1  UNL1        0.1233
      9 C          62.9405   85.7902   11.9905 C.ar    1  UNL1       -0.0075
     10 C          62.4951   84.9767   10.8115 C.ar    1  UNL1       -0.0030
     11 C          61.8806   85.6538    9.6223 C.ar    1  UNL1       -0.0003
     12 C          61.7116   87.1442    9.6121 C.ar    1  UNL1       -0.0000
     13 C          62.1570   87.9576   10.7911 C.ar    1  UNL1       -0.0003
     14 C          62.7715   87.2806   11.9803 C.ar    1  UNL1       -0.0030
     15 C          64.4436   85.8876   14.1073 C.3     1  UNL1        0.0477
     16 CL         64.3857   88.8741   14.3849 Cl      1  UNL1       -0.0826
     17 C          63.8428   88.0082   15.4829 C.ar    1  UNL1        0.0537
     18 C          63.2710   88.6355   16.7196 C.ar    1  UNL1        0.0111
     19 C          62.7282   87.7696   17.8175 C.ar    1  UNL1        0.0008
     20 C          62.7572   86.2763   17.6787 C.ar    1  UNL1       -0.0003
     21 C          63.3290   85.6489   16.4420 C.ar    1  UNL1       -0.0034
     22 C          63.8718   86.5149   15.3441 C.ar    1  UNL1       -0.0099
@<TRIPOS>BOND
     1    16    17    1
     2    17    18   ar
     3    18    19   ar
     4    19    20   ar
     5    20    21   ar
     6    21    22   ar
     7    22    15    1
     8    15     1    1
     9     1     9    1
    10     9    10   ar
    11    10    11   ar
    12    11    12   ar
    13    12    13   ar
    14    13    14   ar
    15     1     2    1
    16     2     3    1
    17     3     4    1
    18     4     5    1
    19     5     6    1
    20     6     7    1
    21    22    17   ar
    22    14     9   ar
    23     7     2    1
    24     5     8    1
@<TRIPOS>MOLECULE
*****
 22 24 0 0 0
SMALL
GASTEIGER

@<TRIPOS>ATOM
      1 C          61.4520   87.7137   10.6416 C.3     1  UNL1        0.0846
      2 N          60.5554   87.8293    9.4446 N.3     1  UNL1       -0.2676
      3 C          59.9002   86.6051    8.8773 C.3     1  UNL1        0.0896
      4 C          59.0036   86.7206    7.6804 C.3     1  UNL1        0.0862
      5 N          58.7622   88.0605    7.0508 N.3     1  UNL1       -0.2951
      6 C          59.4173   89.2848    7.6181 C.3     1  UNL1        0.0862
      7 C          60.3139   89.1692    8.8150 C.3     1  UNL1        0.0896
      8 H          57.7558   88.2236    7.0824 H       1  UNL1        0.1233
      9 C          62.3104   88.8738   11.0506 C.ar    1  UNL1       -0.0075
     10 C          62.5249   90.0182   10.1049 C.ar    1  UNL1       -0.0030
     11 C          63.3833   91.1784   10.5139 C.ar    1  UNL1       -0.0003
     12 C          64.0272   91.1941   11.8685 C.ar    1  UNL1       -0.0000
     13 C          63.8127   90.0497   12.8142 C.ar    1  UNL1       -0.0003
     14 C          62.9543   88.8896   12.4053 C.ar    1  UNL1       -0.0030
     15 C          61.4902   86.4379   11.4296 C.3     1  UNL1        0.0477
     16 CL         62.6326   84.6157   13.5211 Cl      1  UNL1       -0.0826
     17 C          63.0038   84.4289   12.0798 C.ar    1  UNL1        0.0537
     18 C          63.9462   83.3310   11.6842 C.ar    1  UNL1        0.0111
     19 C          64.3174   83.1442   10.2430 C.ar    1  UNL1        0.0008
     20 C          63.7462   84.0553    9.1972 C.ar    1  UNL1       -0.0003
     21 C          62.8038   85.1532    9.5928 C.ar    1  UNL1       -0.0034
     22 C          62.4326   85.3400   11.0340 C.ar    1  UNL1       -0.0099
@<TRIPOS>BOND
     1    16    17    1
     2    17    18   ar
     3    18    19   ar
     4    19    20   ar
     5    20    21   ar
     6    21    22   ar
     7    22    15    1
     8    15     1    1
     9     1     9    1
    10     9    10   ar
    11    10    11   ar
    12    11    12   ar
    13    12    13   ar
    14    13    14   ar
    15     1     2    1
    16     2     3    1
    17     3     4    1
    18     4     5    1
    19     5     6    1
    20     6     7    1
    21    22    17   ar
    22    14     9   ar
    23     7     2    1
    24     5     8    1
@<TRIPOS>MOLECULE
*****
 22 24 0 0 0
SMALL
GASTEIGER

@<TRIPOS>ATOM
      1 C          65.5574   92.3200   12.8240 C.3     1  UNL1        0.0846
      2 N          64.6301   91.1442   12.7359 N.3     1  UNL1       -0.2676
      3 C          63.6730   91.0284   11.5867 C.3     1  UNL1        0.0896
      4 C          62.7458   89.8526   11.4985 C.3     1  UNL1        0.0862
      5 N          62.7757   88.7927   12.5594 N.3     1  UNL1       -0.2951
      6 C          63.7328   88.9085   13.7085 C.3     1  UNL1        0.0862
      7 C          64.6600   90.0842   13.7968 C.3     1  UNL1        0.0896
      8 H          62.9848   87.9117   12.0897 H       1  UNL1        0.1233
      9 C          66.5851   92.3846   13.9147 C.ar    1  UNL1       -0.0075
     10 C          67.9997   91.9694   13.6378 C.ar    1  UNL1       -0.0030
     11 C          69.0274   92.0339   14.7286 C.ar    1  UNL1       -0.0003
     12 C          68.6406   92.5137   16.0961 C.ar    1  UNL1       -0.0000
     13 C          67.2260   92.9289   16.3729 C.ar    1  UNL1       -0.0003
     14 C          66.1983   92.8644   15.2823 C.ar    1  UNL1       -0.0030
     15 C          65.4568   93.4313   11.8215 C.3     1  UNL1        0.0477
     16 CL         65.7262   95.9664   10.2402 Cl      1  UNL1       -0.0826
     17 C          66.5666   94.7732    9.8934 C.ar    1  UNL1        0.0537
     18 C          67.5416   94.8477    8.7560 C.ar    1  UNL1        0.0111
     19 C          68.3820   93.6546    8.4092 C.ar    1  UNL1        0.0008
     20 C          68.2473   92.3871    9.1999 C.ar    1  UNL1       -0.0003
     21 C          67.2723   92.3126   10.3373 C.ar    1  UNL1       -0.0034
     22 C          66.4319   93.5057   10.6840 C.ar    1  UNL1       -0.0099
@<TRIPOS>BOND
     1    16    17    1
     2    17    18   ar
     3    18    19   ar
     4    19    20   ar
     5    20    21   ar
     6    21    22   ar
     7    22    15    1
     8    15     1    1
     9     1     9    1
    10     9    10   ar
    11    10    11   ar
    12    11    12   ar
    13    12    13   ar
    14    13    14   ar
    15     1     2    1
    16     2     3    1
    17     3     4    1
    18     4     5    1
    19     5     6    1
    20     6     7    1
    21    22    17   ar
    22    14     9   ar
    23     7     2    1
    24     5     8    1
@<TRIPOS>MOLECULE
*****
 22 24 0 0 0
SMALL
GASTEIGER

@<TRIPOS>ATOM
      1 C          62.0638   86.7849   10.9092 C.3     1  UNL1        0.0846
      2 N          61.8091   86.2447    9.5332 N.3     1  UNL1       -0.2676
      3 C          62.9158   85.5752    8.7736 C.3     1  UNL1        0.0896
      4 C          62.6612   85.0350    7.3977 C.3     1  UNL1        0.0862
      5 N          61.2999   85.1644    6.7812 N.3     1  UNL1       -0.2951
      6 C          60.1932   85.8340    7.5408 C.3     1  UNL1        0.0862
      7 C          60.4478   86.3741    8.9167 C.3     1  UNL1        0.0896
      8 H          60.9815   84.2188    6.5694 H       1  UNL1        0.1233
      9 C          62.5174   88.2037   11.0859 C.ar    1  UNL1       -0.0075
     10 C          62.3337   89.1938    9.9741 C.ar    1  UNL1       -0.0030
     11 C          62.7873   90.6127   10.1508 C.ar    1  UNL1       -0.0003
     12 C          63.4245   91.0414   11.4392 C.ar    1  UNL1       -0.0000
     13 C          63.6082   90.0513   12.5510 C.ar    1  UNL1       -0.0003
     14 C          63.1547   88.6325   12.3743 C.ar    1  UNL1       -0.0030
     15 C          61.8649   85.9063   12.1085 C.3     1  UNL1        0.0477
     16 CL         64.0306   85.8981   14.1845 Cl      1  UNL1       -0.0826
     17 C          63.8026   84.6839   13.3338 C.ar    1  UNL1        0.0537
     18 C          64.6575   83.4657   13.5210 C.ar    1  UNL1        0.0111
     19 C          64.4296   82.2515   12.6702 C.ar    1  UNL1        0.0008
     20 C          63.3467   82.2556   11.6322 C.ar    1  UNL1       -0.0003
     21 C          62.4919   83.4738   11.4450 C.ar    1  UNL1       -0.0034
     22 C          62.7198   84.6880   12.2957 C.ar    1  UNL1       -0.0099
@<TRIPOS>BOND
     1    16    17    1
     2    17    18   ar
     3    18    19   ar
     4    19    20   ar
     5    20    21   ar
     6    21    22   ar
     7    22    15    1
     8    15     1    1
     9     1     9    1
    10     9    10   ar
    11    10    11   ar
    12    11    12   ar
    13    12    13   ar
    14    13    14   ar
    15     1     2    1
    16     2     3    1
    17     3     4    1
    18     4     5    1
    19     5     6    1
    20     6     7    1
    21    22    17   ar
    22    14     9   ar
    23     7     2    1
    24     5     8    1
@<TRIPOS>MOLECULE
*****
 22 24 0 0 0
SMALL
GASTEIGER

@<TRIPOS>ATOM
      1 C          61.9664   86.2365   11.0590 C.3     1  UNL1        0.0846
      2 N          62.6765   85.3119   12.0030 N.3     1  UNL1       -0.2676
      3 C          62.6286   83.8295   11.7789 C.3     1  UNL1        0.0896
      4 C          63.3385   82.9050   12.7229 C.3     1  UNL1        0.0862
      5 N          64.0964   83.4628   13.8909 N.3     1  UNL1       -0.2951
      6 C          64.1443   84.9452   14.1150 C.3     1  UNL1        0.0862
      7 C          63.4343   85.8698   13.1711 C.3     1  UNL1        0.0896
      8 H          65.0618   83.1485   13.7928 H       1  UNL1        0.1233
      9 C          61.8263   85.8680    9.6117 C.ar    1  UNL1       -0.0075
     10 C          62.9866   85.2672    8.8751 C.ar    1  UNL1       -0.0030
     11 C          62.8465   84.8987    7.4277 C.ar    1  UNL1       -0.0003
     12 C          61.5461   85.1310    6.7172 C.ar    1  UNL1       -0.0000
     13 C          60.3858   85.7319    7.4538 C.ar    1  UNL1       -0.0003
     14 C          60.5259   86.1004    8.9011 C.ar    1  UNL1       -0.0030
     15 C          61.3965   87.5295   11.5623 C.3     1  UNL1        0.0477
     16 CL         60.9756   89.3252    9.1962 Cl      1  UNL1       -0.0826
     17 C          61.9763   89.6958   10.2504 C.ar    1  UNL1        0.0537
     18 C          62.7665   90.9643   10.1215 C.ar    1  UNL1        0.0111
     19 C          63.7671   91.3349   11.1757 C.ar    1  UNL1        0.0008
     20 C          63.9776   90.4370   12.3587 C.ar    1  UNL1       -0.0003
     21 C          63.1874   89.1686   12.4876 C.ar    1  UNL1       -0.0034
     22 C          62.1868   88.7980   11.4334 C.ar    1  UNL1       -0.0099
@<TRIPOS>BOND
     1    16    17    1
     2    17    18   ar
     3    18    19   ar
     4    19    20   ar
     5    20    21   ar
     6    21    22   ar
     7    22    15    1
     8    15     1    1
     9     1     9    1
    10     9    10   ar
    11    10    11   ar
    12    11    12   ar
    13    12    13   ar
    14    13    14   ar
    15     1     2    1
    16     2     3    1
    17     3     4    1
    18     4     5    1
    19     5     6    1
    20     6     7    1
    21    22    17   ar
    22    14     9   ar
    23     7     2    1
    24     5     8    1
@<TRIPOS>MOLECULE
*****
 22 24 0 0 0
SMALL
GASTEIGER

@<TRIPOS>ATOM
      1 C          65.5976   92.5501   12.6435 C.3     1  UNL1        0.0846
      2 N          66.5296   92.4700   13.8162 N.3     1  UNL1       -0.2676
      3 C          66.0420   92.8317   15.1878 C.3     1  UNL1        0.0896
      4 C          66.9739   92.7516   16.3605 C.3     1  UNL1        0.0862
      5 N          68.3934   92.3097   16.1615 N.3     1  UNL1       -0.2951
      6 C          68.8810   91.9480   14.7899 C.3     1  UNL1        0.0862
      7 C          67.9491   92.0281   13.6172 C.3     1  UNL1        0.0896
      8 H          68.5310   91.4876   16.7492 H       1  UNL1        0.1233
      9 C          64.6342   91.4327   12.3735 C.ar    1  UNL1       -0.0075
     10 C          64.4469   90.3426   13.3867 C.ar    1  UNL1       -0.0030
     11 C          63.4834   89.2250   13.1166 C.ar    1  UNL1       -0.0003
     12 C          62.7073   89.1977   11.8333 C.ar    1  UNL1       -0.0000
     13 C          62.8946   90.2878   10.8201 C.ar    1  UNL1       -0.0003
     14 C          63.8580   91.4052   11.0902 C.ar    1  UNL1       -0.0030
     15 C          65.6292   93.7478   11.7410 C.3     1  UNL1        0.0477
     16 CL         65.6581   96.1241    9.9100 Cl      1  UNL1       -0.0826
     17 C          66.5444   94.9477    9.6261 C.ar    1  UNL1        0.0537
     18 C          67.4452   94.9595    8.4267 C.ar    1  UNL1        0.0111
     19 C          68.3314   93.7831    8.1429 C.ar    1  UNL1        0.0008
     20 C          68.3170   92.5949    9.0583 C.ar    1  UNL1       -0.0003
     21 C          67.4162   92.5832   10.2577 C.ar    1  UNL1       -0.0034
     22 C          66.5300   93.7595   10.5416 C.ar    1  UNL1       -0.0099
@<TRIPOS>BOND
     1    16    17    1
     2    17    18   ar
     3    18    19   ar
     4    19    20   ar
     5    20    21   ar
     6    21    22   ar
     7    22    15    1
     8    15     1    1
     9     1     9    1
    10     9    10   ar
    11    10    11   ar
    12    11    12   ar
    13    12    13   ar
    14    13    14   ar
    15     1     2    1
    16     2     3    1
    17     3     4    1
    18     4     5    1
    19     5     6    1
    20     6     7    1
    21    22    17   ar
    22    14     9   ar
    23     7     2    1
    24     5     8    1
@<TRIPOS>MOLECULE
*****
 22 24 0 0 0
SMALL
GASTEIGER

@<TRIPOS>ATOM
      1 C          63.4649   90.6815   12.6590 C.3     1  UNL1        0.0846
      2 N          64.6279   91.5704   12.3312 N.3     1  UNL1       -0.2676
      3 C          64.7894   92.1123   10.9419 C.3     1  UNL1        0.0896
      4 C          65.9523   93.0012   10.6140 C.3     1  UNL1        0.0862
      5 N          66.9537   93.3481   11.6755 N.3     1  UNL1       -0.2951
      6 C          66.7922   92.8062   13.0648 C.3     1  UNL1        0.0862
      7 C          65.6293   91.9174   13.3927 C.3     1  UNL1        0.0896
      8 H          66.9584   94.3650   11.7548 H       1  UNL1        0.1233
      9 C          63.5477   89.7359   13.8205 C.ar    1  UNL1       -0.0075
     10 C          64.1157   88.3609   13.6291 C.ar    1  UNL1       -0.0030
     11 C          64.1984   87.4153   14.7907 C.ar    1  UNL1       -0.0003
     12 C          63.7132   87.8448   16.1434 C.ar    1  UNL1       -0.0000
     13 C          63.1452   89.2198   16.3348 C.ar    1  UNL1       -0.0003
     14 C          63.0624   90.1654   15.1733 C.ar    1  UNL1       -0.0030
     15 C          62.2192   90.7382   11.8253 C.3     1  UNL1        0.0477
     16 CL         59.3562   89.8911   12.1173 Cl      1  UNL1       -0.0826
     17 C          60.2955   89.0815   11.2734 C.ar    1  UNL1        0.0537
     18 C          59.8033   87.8483   10.5755 C.ar    1  UNL1        0.0111
     19 C          60.7427   87.0387    9.7317 C.ar    1  UNL1        0.0008
     20 C          62.1742   87.4623    9.5857 C.ar    1  UNL1       -0.0003
     21 C          62.6664   88.6954   10.2836 C.ar    1  UNL1       -0.0034
     22 C          61.7271   89.5050   11.1274 C.ar    1  UNL1       -0.0099
@<TRIPOS>BOND
     1    16    17    1
     2    17    18   ar
     3    18    19   ar
     4    19    20   ar
     5    20    21   ar
     6    21    22   ar
     7    22    15    1
     8    15     1    1
     9     1     9    1
    10     9    10   ar
    11    10    11   ar
    12    11    12   ar
    13    12    13   ar
    14    13    14   ar
    15     1     2    1
    16     2     3    1
    17     3     4    1
    18     4     5    1
    19     5     6    1
    20     6     7    1
    21    22    17   ar
    22    14     9   ar
    23     7     2    1
    24     5     8    1
@<TRIPOS>MOLECULE
*****
 22 24 0 0 0
SMALL
GASTEIGER

@<TRIPOS>ATOM
      1 C          63.6031   85.2786   13.3354 C.3     1  UNL1        0.0846
      2 N          63.3166   83.8254   13.5726 N.3     1  UNL1       -0.2676
      3 C          64.2240   82.7785   12.9976 C.3     1  UNL1        0.0896
      4 C          63.9376   81.3254   13.2348 C.3     1  UNL1        0.0862
      5 N          62.7437   80.9192   14.0469 N.3     1  UNL1       -0.2951
      6 C          61.8363   81.9661   14.6219 C.3     1  UNL1        0.0862
      7 C          62.1227   83.4192   14.3847 C.3     1  UNL1        0.0896
      8 H          63.0944   80.3703   14.8318 H       1  UNL1        0.1233
      9 C          62.9199   86.0045   12.2146 C.ar    1  UNL1       -0.0075
     10 C          62.9788   87.5018   12.1447 C.ar    1  UNL1       -0.0030
     11 C          62.2955   88.2277   11.0238 C.ar    1  UNL1       -0.0003
     12 C          61.5535   87.4564    9.9729 C.ar    1  UNL1       -0.0000
     13 C          61.4947   85.9592   10.0427 C.ar    1  UNL1       -0.0003
     14 C          62.1779   85.2332   11.1636 C.ar    1  UNL1       -0.0030
     15 C          64.5728   86.0058   14.2190 C.3     1  UNL1        0.0477
     16 CL         63.2092   85.6163   16.8626 Cl      1  UNL1       -0.0826
     17 C          63.4368   87.0012   16.3330 C.ar    1  UNL1        0.0537
     18 C          62.9826   88.1912   17.1251 C.ar    1  UNL1        0.0111
     19 C          63.2103   89.5759   16.5955 C.ar    1  UNL1        0.0008
     20 C          63.8921   89.7707   15.2737 C.ar    1  UNL1       -0.0003
     21 C          64.3463   88.5807   14.4815 C.ar    1  UNL1       -0.0034
     22 C          64.1186   87.1959   15.0112 C.ar    1  UNL1       -0.0099
@<TRIPOS>BOND
     1    16    17    1
     2    17    18   ar
     3    18    19   ar
     4    19    20   ar
     5    20    21   ar
     6    21    22   ar
     7    22    15    1
     8    15     1    1
     9     1     9    1
    10     9    10   ar
    11    10    11   ar
    12    11    12   ar
    13    12    13   ar
    14    13    14   ar
    15     1     2    1
    16     2     3    1
    17     3     4    1
    18     4     5    1
    19     5     6    1
    20     6     7    1
    21    22    17   ar
    22    14     9   ar
    23     7     2    1
    24     5     8    1
