@<TRIPOS>MOLECULE
*****
 25 28 0 0 0
SMALL
GASTEIGER

@<TRIPOS>ATOM
      1 N          63.8172   84.0205   15.2185 N.3     1  UNL1       -0.2665
      2 C          64.7140   85.1888   14.9338 C.3     1  UNL1        0.0899
      3 C          64.4013   86.5342   15.5185 C.3     1  UNL1        0.0900
      4 N          63.1918   86.7115   16.3879 N.3     1  UNL1       -0.2624
      5 C          62.2951   85.5433   16.6726 C.3     1  UNL1        0.0900
      6 C          62.6078   84.1977   16.0879 C.3     1  UNL1        0.0899
      7 C          64.1299   82.6750   14.6338 C.3     1  UNL1        0.0992
      8 C          63.4950   81.9276   10.2419 C.ar    1  UNL1       -0.0000
      9 C          62.8636   81.0205   11.2561 C.ar    1  UNL1       -0.0003
     10 C          63.0752   81.2697   12.7200 C.ar    1  UNL1       -0.0029
     11 C          63.9183   82.4259   13.1698 C.ar    1  UNL1       -0.0061
     12 C          64.5497   83.3330   12.1557 C.ar    1  UNL1       -0.0029
     13 C          64.3381   83.0838   10.6918 C.ar    1  UNL1       -0.0003
     14 C          62.8792   88.0570   16.9726 C.3     1  UNL1        0.1604
     15 C          63.2407   89.3038   16.2210 C.ar    1  UNL1        0.2426
     16 N          63.3729   90.6787   16.8058 N.ar    1  UNL1       -0.1099
     17 N          63.7474   91.6192   15.6989 N.ar    1  UNL1       -0.1072
     18 C          63.8466   90.8255   14.4300 C.ar    1  UNL1        0.2496
     19 O          63.5335   89.3945   14.7527 O.2     1  UNL1       -0.4181
     20 C          64.1975   91.3676   13.0761 C.ar    1  UNL1        0.0551
     21 C          63.3979   90.9592   11.8745 C.ar    1  UNL1        0.0047
     22 C          63.7487   91.5013   10.5206 C.ar    1  UNL1        0.0002
     23 C          64.8991   92.4518   10.3683 C.ar    1  UNL1        0.0000
     24 C          65.6987   92.8602   11.5700 C.ar    1  UNL1        0.0002
     25 C          65.3479   92.3181   12.9238 C.ar    1  UNL1        0.0047
@<TRIPOS>BOND
     1     8     9   ar
     2     9    10   ar
     3    10    11   ar
     4    11     7    1
     5     7     1    1
     6     1     2    1
     7     2     3    1
     8     3     4    1
     9     4    14    1
    10    14    15    1
    11    15    16   ar
    12    16    17   ar
    13    17    18   ar
    14    18    20    1
    15    20    21   ar
    16    21    22   ar
    17    22    23   ar
    18    23    24   ar
    19    24    25   ar
    20    18    19   ar
    21     4     5    1
    22     5     6    1
    23    11    12   ar
    24    12    13   ar
    25    13     8   ar
    26     6     1    1
    27    19    15   ar
    28    25    20   ar
@<TRIPOS>MOLECULE
*****
 25 28 0 0 0
SMALL
GASTEIGER

@<TRIPOS>ATOM
      1 N          64.9078   92.0475   11.9907 N.3     1  UNL1       -0.2665
      2 C          64.2304   92.0233   10.6525 C.3     1  UNL1        0.0899
      3 C          62.9946   91.1970   10.4523 C.3     1  UNL1        0.0900
      4 N          62.4362   90.3949   11.5903 N.3     1  UNL1       -0.2624
      5 C          63.1136   90.4191   12.9283 C.3     1  UNL1        0.0900
      6 C          64.3495   91.2454   13.1286 C.3     1  UNL1        0.0899
      7 C          66.1436   92.8737   12.1908 C.3     1  UNL1        0.0992
      8 C          67.4602   95.7620    9.0011 C.ar    1  UNL1       -0.0000
      9 C          66.6614   96.2514   10.1726 C.ar    1  UNL1       -0.0003
     10 C          66.2226   95.2886   11.2358 C.ar    1  UNL1       -0.0029
     11 C          66.5825   93.8365   11.1276 C.ar    1  UNL1       -0.0061
     12 C          67.3812   93.3471    9.9561 C.ar    1  UNL1       -0.0029
     13 C          67.8201   94.3099    8.8928 C.ar    1  UNL1       -0.0003
     14 C          61.2004   89.5686   11.3900 C.3     1  UNL1        0.1604
     15 C          61.3184   88.1251   10.9998 C.ar    1  UNL1        0.2426
     16 N          60.5142   87.4292    9.9421 N.ar    1  UNL1       -0.1099
     17 N          60.9601   85.9980    9.8874 N.ar    1  UNL1       -0.1072
     18 C          62.0400   85.8095   10.9113 C.ar    1  UNL1        0.2496
     19 O          62.2614   87.1241   11.5988 O.2     1  UNL1       -0.4181
     20 C          62.7701   84.5308   11.1975 C.ar    1  UNL1        0.0551
     21 C          63.5596   83.8592   10.1132 C.ar    1  UNL1        0.0047
     22 C          64.2898   82.5806   10.3993 C.ar    1  UNL1        0.0002
     23 C          64.2305   81.9736   11.7698 C.ar    1  UNL1        0.0000
     24 C          63.4410   82.6452   12.8541 C.ar    1  UNL1        0.0002
     25 C          62.7109   83.9238   12.5679 C.ar    1  UNL1        0.0047
@<TRIPOS>BOND
     1     8     9   ar
     2     9    10   ar
     3    10    11   ar
     4    11     7    1
     5     7     1    1
     6     1     2    1
     7     2     3    1
     8     3     4    1
     9     4    14    1
    10    14    15    1
    11    15    16   ar
    12    16    17   ar
    13    17    18   ar
    14    18    20    1
    15    20    21   ar
    16    21    22   ar
    17    22    23   ar
    18    23    24   ar
    19    24    25   ar
    20    18    19   ar
    21     4     5    1
    22     5     6    1
    23    11    12   ar
    24    12    13   ar
    25    13     8   ar
    26     6     1    1
    27    19    15   ar
    28    25    20   ar
@<TRIPOS>MOLECULE
*****
 25 28 0 0 0
SMALL
GASTEIGER

@<TRIPOS>ATOM
      1 N          64.9075   92.0365   12.0062 N.3     1  UNL1       -0.2665
      2 C          64.3562   91.2342   13.1475 C.3     1  UNL1        0.0899
      3 C          63.1196   90.4075   12.9548 C.3     1  UNL1        0.0900
      4 N          62.4341   90.3829   11.6208 N.3     1  UNL1       -0.2624
      5 C          62.9853   91.1852   10.4795 C.3     1  UNL1        0.0900
      6 C          64.2220   92.0120   10.6722 C.3     1  UNL1        0.0899
      7 C          66.1441   92.8632   12.1989 C.3     1  UNL1        0.0992
      8 C          67.4558   95.7317    8.9893 C.ar    1  UNL1       -0.0000
      9 C          66.6546   96.2274   10.1564 C.ar    1  UNL1       -0.0003
     10 C          66.2173   95.2712   11.2263 C.ar    1  UNL1       -0.0029
     11 C          66.5813   93.8194   11.1290 C.ar    1  UNL1       -0.0061
     12 C          67.3825   93.3236    9.9619 C.ar    1  UNL1       -0.0029
     13 C          67.8198   94.2798    8.8920 C.ar    1  UNL1       -0.0003
     14 C          61.1974   89.5561   11.4281 C.3     1  UNL1        0.1604
     15 C          61.3136   88.1135   11.0342 C.ar    1  UNL1        0.2426
     16 N          60.4965   87.4171    9.9866 N.ar    1  UNL1       -0.1099
     17 N          60.9451   85.9871    9.9237 N.ar    1  UNL1       -0.1072
     18 C          62.0395   85.7998   10.9324 C.ar    1  UNL1        0.2496
     19 O          62.2672   87.1139   11.6187 O.2     1  UNL1       -0.4181
     20 C          62.7766   84.5225   11.2065 C.ar    1  UNL1        0.0551
     21 C          62.7171   83.9001   12.5700 C.ar    1  UNL1        0.0047
     22 C          63.4543   82.6229   12.8442 C.ar    1  UNL1        0.0002
     23 C          64.2510   81.9680   11.7549 C.ar    1  UNL1        0.0000
     24 C          64.3105   82.5904   10.3914 C.ar    1  UNL1        0.0002
     25 C          63.5733   83.8677   10.1173 C.ar    1  UNL1        0.0047
@<TRIPOS>BOND
     1     8     9   ar
     2     9    10   ar
     3    10    11   ar
     4    11     7    1
     5     7     1    1
     6     1     2    1
     7     2     3    1
     8     3     4    1
     9     4    14    1
    10    14    15    1
    11    15    16   ar
    12    16    17   ar
    13    17    18   ar
    14    18    20    1
    15    20    21   ar
    16    21    22   ar
    17    22    23   ar
    18    23    24   ar
    19    24    25   ar
    20    18    19   ar
    21     4     5    1
    22     5     6    1
    23    11    12   ar
    24    12    13   ar
    25    13     8   ar
    26     6     1    1
    27    19    15   ar
    28    25    20   ar
@<TRIPOS>MOLECULE
*****
 25 28 0 0 0
SMALL
GASTEIGER

@<TRIPOS>ATOM
      1 N          64.4094   91.6746   11.8694 N.3     1  UNL1       -0.2665
      2 C          63.7625   91.6466   10.5163 C.3     1  UNL1        0.0899
      3 C          62.7817   90.5639   10.1762 C.3     1  UNL1        0.0900
      4 N          62.4476   89.5092   11.1891 N.3     1  UNL1       -0.2624
      5 C          63.0944   89.5372   12.5422 C.3     1  UNL1        0.0900
      6 C          64.0754   90.6199   12.8823 C.3     1  UNL1        0.0899
      7 C          65.3903   92.7572   12.2095 C.3     1  UNL1        0.0992
      8 C          68.0228   94.4974    9.0013 C.ar    1  UNL1       -0.0000
      9 C          68.1692   93.0566    9.3920 C.ar    1  UNL1       -0.0003
     10 C          67.2917   92.4765   10.4614 C.ar    1  UNL1       -0.0029
     11 C          66.2678   93.3373   11.1401 C.ar    1  UNL1       -0.0061
     12 C          66.1214   94.7780   10.7494 C.ar    1  UNL1       -0.0029
     13 C          66.9988   95.3581    9.6801 C.ar    1  UNL1       -0.0003
     14 C          61.4667   88.4266   10.8490 C.3     1  UNL1        0.1604
     15 C          61.9193   86.9981   10.7830 C.ar    1  UNL1        0.2426
     16 N          62.4581   86.2991    9.5701 N.ar    1  UNL1       -0.1099
     17 N          62.7845   84.8867    9.9557 N.ar    1  UNL1       -0.1072
     18 C          62.4474   84.7128   11.4070 C.ar    1  UNL1        0.2496
     19 O          61.9127   86.0177   11.9183 O.2     1  UNL1       -0.4181
     20 C          62.6155   83.4549   12.2066 C.ar    1  UNL1        0.0551
     21 C          62.6397   83.5164   13.7052 C.ar    1  UNL1        0.0047
     22 C          62.8078   82.2585   14.5047 C.ar    1  UNL1        0.0002
     23 C          62.9517   80.9390   13.8058 C.ar    1  UNL1        0.0000
     24 C          62.9274   80.8776   12.3073 C.ar    1  UNL1        0.0002
     25 C          62.7593   82.1355   11.5077 C.ar    1  UNL1        0.0047
@<TRIPOS>BOND
     1     8     9   ar
     2     9    10   ar
     3    10    11   ar
     4    11     7    1
     5     7     1    1
     6     1     2    1
     7     2     3    1
     8     3     4    1
     9     4    14    1
    10    14    15    1
    11    15    16   ar
    12    16    17   ar
    13    17    18   ar
    14    18    20    1
    15    20    21   ar
    16    21    22   ar
    17    22    23   ar
    18    23    24   ar
    19    24    25   ar
    20    18    19   ar
    21     4     5    1
    22     5     6    1
    23    11    12   ar
    24    12    13   ar
    25    13     8   ar
    26     6     1    1
    27    19    15   ar
    28    25    20   ar
@<TRIPOS>MOLECULE
*****
 25 28 0 0 0
SMALL
GASTEIGER

@<TRIPOS>ATOM
      1 N          63.9429   85.8295   13.8675 N.3     1  UNL1       -0.2665
      2 C          64.3834   87.0840   14.5621 C.3     1  UNL1        0.0899
      3 C          64.0051   88.4234   14.0028 C.3     1  UNL1        0.0900
      4 N          63.1862   88.5084   12.7489 N.3     1  UNL1       -0.2624
      5 C          62.7457   87.2541   12.0544 C.3     1  UNL1        0.0900
      6 C          63.1240   85.9146   12.6137 C.3     1  UNL1        0.0899
      7 C          64.3212   84.4902   14.4268 C.3     1  UNL1        0.0992
      8 C          62.1775   80.7851   13.0386 C.ar    1  UNL1       -0.0000
      9 C          61.7004   81.5147   14.2592 C.ar    1  UNL1       -0.0003
     10 C          62.4150   82.7497   14.7220 C.ar    1  UNL1       -0.0029
     11 C          63.6067   83.2551   13.9641 C.ar    1  UNL1       -0.0061
     12 C          64.0838   82.5255   12.7435 C.ar    1  UNL1       -0.0029
     13 C          63.3692   81.2905   12.2807 C.ar    1  UNL1       -0.0003
     14 C          62.8079   89.8479   12.1896 C.3     1  UNL1        0.1604
     15 C          63.7933   90.9784   12.2191 C.ar    1  UNL1        0.2426
     16 N          64.3632   91.6194   13.4496 N.ar    1  UNL1       -0.1099
     17 N          65.3039   92.7036   13.0142 N.ar    1  UNL1       -0.1072
     18 C          65.3154   92.7326   11.5145 C.ar    1  UNL1        0.2496
     19 O          64.3818   91.6664   11.0231 O.2     1  UNL1       -0.4181
     20 C          66.1194   93.6643   10.6568 C.ar    1  UNL1        0.0551
     21 C          67.2525   93.1328    9.8300 C.ar    1  UNL1        0.0047
     22 C          68.0565   94.0645    8.9724 C.ar    1  UNL1        0.0002
     23 C          67.7273   95.5277    8.9415 C.ar    1  UNL1        0.0000
     24 C          66.5942   96.0591    9.7683 C.ar    1  UNL1        0.0002
     25 C          65.7902   95.1274   10.6260 C.ar    1  UNL1        0.0047
@<TRIPOS>BOND
     1     8     9   ar
     2     9    10   ar
     3    10    11   ar
     4    11     7    1
     5     7     1    1
     6     1     2    1
     7     2     3    1
     8     3     4    1
     9     4    14    1
    10    14    15    1
    11    15    16   ar
    12    16    17   ar
    13    17    18   ar
    14    18    20    1
    15    20    21   ar
    16    21    22   ar
    17    22    23   ar
    18    23    24   ar
    19    24    25   ar
    20    18    19   ar
    21     4     5    1
    22     5     6    1
    23    11    12   ar
    24    12    13   ar
    25    13     8   ar
    26     6     1    1
    27    19    15   ar
    28    25    20   ar
@<TRIPOS>MOLECULE
*****
 25 28 0 0 0
SMALL
GASTEIGER

@<TRIPOS>ATOM
      1 N          63.1964   86.6026   12.6118 N.3     1  UNL1       -0.2665
      2 C          62.8655   87.9660   12.0810 C.3     1  UNL1        0.0899
      3 C          63.2490   89.1882   12.8615 C.3     1  UNL1        0.0900
      4 N          63.9636   89.0470   14.1728 N.3     1  UNL1       -0.2624
      5 C          64.2945   87.6837   14.7036 C.3     1  UNL1        0.0900
      6 C          63.9110   86.4615   13.9231 C.3     1  UNL1        0.0899
      7 C          62.8129   85.3805   11.8313 C.3     1  UNL1        0.0992
      8 C          61.3932   85.7796    7.5798 C.ar    1  UNL1       -0.0000
      9 C          62.7106   85.1247    7.8723 C.ar    1  UNL1       -0.0003
     10 C          63.1838   84.9917    9.2895 C.ar    1  UNL1       -0.0029
     11 C          62.3397   85.5135   10.4142 C.ar    1  UNL1       -0.0061
     12 C          61.0223   86.1685   10.1217 C.ar    1  UNL1       -0.0029
     13 C          60.5491   86.3015    8.7045 C.ar    1  UNL1       -0.0003
     14 C          64.3471   90.2692   14.9533 C.3     1  UNL1        0.1604
     15 C          65.0761   91.3925   14.2775 C.ar    1  UNL1        0.2426
     16 N          65.5785   92.6416   14.9388 N.ar    1  UNL1       -0.1099
     17 N          66.2436   93.4850   13.8917 N.ar    1  UNL1       -0.1072
     18 C          66.1521   92.7572   12.5833 C.ar    1  UNL1        0.2496
     19 O          65.4306   91.4640   12.8217 O.2     1  UNL1       -0.4181
     20 C          66.6881   93.2382   11.2675 C.ar    1  UNL1        0.0551
     21 C          67.5934   92.3568   10.4591 C.ar    1  UNL1        0.0047
     22 C          68.1294   92.8378    9.1433 C.ar    1  UNL1        0.0002
     23 C          67.7601   94.2002    8.6359 C.ar    1  UNL1        0.0000
     24 C          66.8547   95.0816    9.4442 C.ar    1  UNL1        0.0002
     25 C          66.3188   94.6006   10.7600 C.ar    1  UNL1        0.0047
@<TRIPOS>BOND
     1     8     9   ar
     2     9    10   ar
     3    10    11   ar
     4    11     7    1
     5     7     1    1
     6     1     2    1
     7     2     3    1
     8     3     4    1
     9     4    14    1
    10    14    15    1
    11    15    16   ar
    12    16    17   ar
    13    17    18   ar
    14    18    20    1
    15    20    21   ar
    16    21    22   ar
    17    22    23   ar
    18    23    24   ar
    19    24    25   ar
    20    18    19   ar
    21     4     5    1
    22     5     6    1
    23    11    12   ar
    24    12    13   ar
    25    13     8   ar
    26     6     1    1
    27    19    15   ar
    28    25    20   ar
@<TRIPOS>MOLECULE
*****
 25 28 0 0 0
SMALL
GASTEIGER

@<TRIPOS>ATOM
      1 N          63.6788   86.2889   15.7943 N.3     1  UNL1       -0.2665
      2 C          63.1123   87.1984   16.8441 C.3     1  UNL1        0.0899
      3 C          63.1252   88.6838   16.6357 C.3     1  UNL1        0.0900
      4 N          63.7045   89.2597   15.3776 N.3     1  UNL1       -0.2624
      5 C          64.2709   88.3502   14.3279 C.3     1  UNL1        0.0900
      6 C          64.2581   86.8648   14.5362 C.3     1  UNL1        0.0899
      7 C          63.6659   84.8035   16.0026 C.3     1  UNL1        0.0992
      8 C          63.1738   82.0420   12.4838 C.ar    1  UNL1       -0.0000
      9 C          64.3579   82.9600   12.5570 C.ar    1  UNL1       -0.0003
     10 C          64.5219   83.8805   13.7299 C.ar    1  UNL1       -0.0029
     11 C          63.5019   83.8830   14.8297 C.ar    1  UNL1       -0.0061
     12 C          62.3179   82.9651   14.7565 C.ar    1  UNL1       -0.0029
     13 C          62.1539   82.0446   13.5836 C.ar    1  UNL1       -0.0003
     14 C          63.7173   90.7452   15.1693 C.3     1  UNL1        0.1604
     15 C          64.8725   91.3939   14.4660 C.ar    1  UNL1        0.2426
     16 N          66.2665   91.5318   15.0024 N.ar    1  UNL1       -0.1099
     17 N          67.0920   92.2418   13.9707 N.ar    1  UNL1       -0.1072
     18 C          66.2081   92.5427   12.7966 C.ar    1  UNL1        0.2496
     19 O          64.8364   92.0187   13.1028 O.2     1  UNL1       -0.4181
     20 C          66.6232   93.2445   11.5375 C.ar    1  UNL1        0.0551
     21 C          66.2380   94.6770   11.3155 C.ar    1  UNL1        0.0047
     22 C          66.6530   95.3788   10.0564 C.ar    1  UNL1        0.0002
     23 C          67.4533   94.6479    9.0194 C.ar    1  UNL1        0.0000
     24 C          67.8386   93.2153    9.2414 C.ar    1  UNL1        0.0002
     25 C          67.4235   92.5136   10.5005 C.ar    1  UNL1        0.0047
@<TRIPOS>BOND
     1     8     9   ar
     2     9    10   ar
     3    10    11   ar
     4    11     7    1
     5     7     1    1
     6     1     2    1
     7     2     3    1
     8     3     4    1
     9     4    14    1
    10    14    15    1
    11    15    16   ar
    12    16    17   ar
    13    17    18   ar
    14    18    20    1
    15    20    21   ar
    16    21    22   ar
    17    22    23   ar
    18    23    24   ar
    19    24    25   ar
    20    18    19   ar
    21     4     5    1
    22     5     6    1
    23    11    12   ar
    24    12    13   ar
    25    13     8   ar
    26     6     1    1
    27    19    15   ar
    28    25    20   ar
@<TRIPOS>MOLECULE
*****
 25 28 0 0 0
SMALL
GASTEIGER

@<TRIPOS>ATOM
      1 N          63.1484   86.6979   12.5546 N.3     1  UNL1       -0.2665
      2 C          63.8706   86.5978   13.8655 C.3     1  UNL1        0.0899
      3 C          64.2471   87.8435   14.6114 C.3     1  UNL1        0.0900
      4 N          63.9014   89.1894   14.0464 N.3     1  UNL1       -0.2624
      5 C          63.1792   89.2895   12.7356 C.3     1  UNL1        0.0900
      6 C          62.8026   88.0437   11.9896 C.3     1  UNL1        0.0899
      7 C          62.7719   85.4521   11.8087 C.3     1  UNL1        0.0992
      8 C          61.3889   85.7198    7.5349 C.ar    1  UNL1       -0.0000
      9 C          60.5246   86.2551    8.6377 C.ar    1  UNL1       -0.0003
     10 C          60.9856   86.1658   10.0624 C.ar    1  UNL1       -0.0029
     11 C          62.3109   85.5414   10.3841 C.ar    1  UNL1       -0.0061
     12 C          63.1752   85.0061    9.2812 C.ar    1  UNL1       -0.0029
     13 C          62.7142   85.0953    7.8566 C.ar    1  UNL1       -0.0003
     14 C          64.2779   90.4351   14.7924 C.3     1  UNL1        0.1604
     15 C          65.1128   91.4865   14.1234 C.ar    1  UNL1        0.2426
     16 N          65.7630   92.6576   14.7984 N.ar    1  UNL1       -0.1099
     17 N          66.4962   93.4462   13.7542 N.ar    1  UNL1       -0.1072
     18 C          66.2991   92.7624   12.4336 C.ar    1  UNL1        0.2496
     19 O          65.4442   91.5513   12.6619 O.2     1  UNL1       -0.4181
     20 C          66.8588   93.2111   11.1163 C.ar    1  UNL1        0.0551
     21 C          66.5400   94.5803   10.5932 C.ar    1  UNL1        0.0047
     22 C          67.0996   95.0290    9.2759 C.ar    1  UNL1        0.0002
     23 C          67.9781   94.1084    8.4815 C.ar    1  UNL1        0.0000
     24 C          68.2969   92.7392    9.0046 C.ar    1  UNL1        0.0002
     25 C          67.7372   92.2905   10.3220 C.ar    1  UNL1        0.0047
@<TRIPOS>BOND
     1     8     9   ar
     2     9    10   ar
     3    10    11   ar
     4    11     7    1
     5     7     1    1
     6     1     2    1
     7     2     3    1
     8     3     4    1
     9     4    14    1
    10    14    15    1
    11    15    16   ar
    12    16    17   ar
    13    17    18   ar
    14    18    20    1
    15    20    21   ar
    16    21    22   ar
    17    22    23   ar
    18    23    24   ar
    19    24    25   ar
    20    18    19   ar
    21     4     5    1
    22     5     6    1
    23    11    12   ar
    24    12    13   ar
    25    13     8   ar
    26     6     1    1
    27    19    15   ar
    28    25    20   ar
@<TRIPOS>MOLECULE
*****
 25 28 0 0 0
SMALL
GASTEIGER

@<TRIPOS>ATOM
      1 N          64.6060   91.8673   12.0445 N.3     1  UNL1       -0.2665
      2 C          64.1504   90.8792   13.0771 C.3     1  UNL1        0.0899
      3 C          63.1246   89.8436   12.7231 C.3     1  UNL1        0.0900
      4 N          62.5544   89.7961   11.3365 N.3     1  UNL1       -0.2624
      5 C          63.0099   90.7841   10.3040 C.3     1  UNL1        0.0900
      6 C          64.0357   91.8197   10.6579 C.3     1  UNL1        0.0899
      7 C          65.6317   92.9029   12.3985 C.3     1  UNL1        0.0992
      8 C          68.3800   92.2427   15.9001 C.ar    1  UNL1       -0.0000
      9 C          67.0476   92.9000   16.1060 C.ar    1  UNL1       -0.0003
     10 C          66.1315   93.1201   14.9388 C.ar    1  UNL1       -0.0029
     11 C          66.5478   92.6828   13.5657 C.ar    1  UNL1       -0.0061
     12 C          67.8803   92.0255   13.3598 C.ar    1  UNL1       -0.0029
     13 C          68.7964   91.8054   14.5270 C.ar    1  UNL1       -0.0003
     14 C          61.5286   88.7604   10.9826 C.3     1  UNL1        0.1604
     15 C          61.9276   87.3194   10.8639 C.ar    1  UNL1        0.2426
     16 N          62.3007   86.6094    9.5964 N.ar    1  UNL1       -0.1099
     17 N          62.6274   85.1865    9.9411 N.ar    1  UNL1       -0.1072
     18 C          62.4561   85.0171   11.4216 C.ar    1  UNL1        0.2496
     19 O          62.0236   86.3354   11.9920 O.2     1  UNL1       -0.4181
     20 C          62.6783   83.7518   12.1959 C.ar    1  UNL1        0.0551
     21 C          62.7962   83.7980   13.6905 C.ar    1  UNL1        0.0047
     22 C          63.0184   82.5326   14.4647 C.ar    1  UNL1        0.0002
     23 C          63.1227   81.2211   13.7443 C.ar    1  UNL1        0.0000
     24 C          63.0047   81.1749   12.2497 C.ar    1  UNL1        0.0002
     25 C          62.7825   82.4402   11.4755 C.ar    1  UNL1        0.0047
@<TRIPOS>BOND
     1     8     9   ar
     2     9    10   ar
     3    10    11   ar
     4    11     7    1
     5     7     1    1
     6     1     2    1
     7     2     3    1
     8     3     4    1
     9     4    14    1
    10    14    15    1
    11    15    16   ar
    12    16    17   ar
    13    17    18   ar
    14    18    20    1
    15    20    21   ar
    16    21    22   ar
    17    22    23   ar
    18    23    24   ar
    19    24    25   ar
    20    18    19   ar
    21     4     5    1
    22     5     6    1
    23    11    12   ar
    24    12    13   ar
    25    13     8   ar
    26     6     1    1
    27    19    15   ar
    28    25    20   ar
