@<TRIPOS>MOLECULE
*****
 33 36 0 0 0
SMALL
GASTEIGER

@<TRIPOS>ATOM
      1 C          61.4238   90.1190   11.0190 C.ar    1  UNL1        0.0000
      2 C          61.5548   89.7603   12.4695 C.ar    1  UNL1        0.0000
      3 C          62.7307   90.2519   13.2605 C.ar    1  UNL1        0.0000
      4 C          63.7755   91.1023   12.6009 C.ar    1  UNL1        0.0000
      5 C          63.6444   91.4611   11.1503 C.ar    1  UNL1        0.0000
      6 C          62.4686   90.9694   10.3593 C.ar    1  UNL1        0.0000
      7 B          64.9514   91.5940   13.3919 B       1  UNL1        0.0000
      8 O          66.2089   91.6499   12.5763 O.3     1  UNL1        0.0000
      9 C          67.6298   92.0493   12.8437 C.2     1  UNL1        0.0000
     10 O          68.5040   91.9061   11.6332 O.2     1  UNL1        0.0000
     11 C          68.3816   92.5583   14.0378 C.3     1  UNL1        0.0000
     12 N          68.0239   92.8787   15.4589 N.3     1  UNL1        0.0000
     13 C          69.1998   93.3704   16.2498 C.3     1  UNL1        0.0000
     14 C          66.7664   92.8229   16.2745 C.3     1  UNL1        0.0000
     15 C          65.3455   92.4234   16.0069 C.2     1  UNL1        0.0000
     16 O          64.4713   92.5666   17.2174 O.2     1  UNL1        0.0000
     17 O          64.5937   91.9144   14.8130 O.3     1  UNL1        0.0000
     18 C          60.2479   89.6273   10.2280 C.3     1  UNL1        0.0000
     19 C          59.0241   89.7300    7.2045 C.3     1  UNL1        0.0000
     20 C          59.8793   88.6366    7.7729 C.ar    1  UNL1        0.0000
     21 N          60.3221   87.3983    7.0514 N.ar    1  UNL1        0.0000
     22 C          61.1583   86.5858    7.9951 C.ar    1  UNL1        0.0000
     23 C          61.8619   85.2709    7.8349 C.ar    1  UNL1        0.0000
     24 C          62.6395   84.6919    8.9796 C.ar    1  UNL1        0.0000
     25 CL         63.3431   83.3769    8.8194 Cl      1  UNL1        0.0000
     26 C          62.7135   85.4280   10.2844 C.ar    1  UNL1        0.0000
     27 CL         63.4911   84.8491   11.4291 Cl      1  UNL1        0.0000
     28 C          62.0098   86.7431   10.4446 C.ar    1  UNL1        0.0000
     29 C          61.2323   87.3219    9.3000 C.ar    1  UNL1        0.0000
     30 N          60.4418   88.5893    9.1626 N.ar    1  UNL1        0.0000
     31 N          61.7879   84.5347    6.5300 N.pl3   1  UNL1        1.0000
     32 O          62.9796   84.5005    5.6197 O.2     1  UNL1        0.0000
     33 O          60.5223   83.8329    6.1356 O.co2   1  UNL1       -1.0000
@<TRIPOS>UNITY_ATOM_ATTR
31 1
charge 1
33 1
charge -1
@<TRIPOS>BOND
     1    19    20    1
     2    20    21   ar
     3    21    22   ar
     4    22    23   ar
     5    23    31    1
     6    31    32    2
     7    31    33    1
     8    23    24   ar
     9    24    25    1
    10    24    26   ar
    11    26    27    1
    12    26    28   ar
    13    28    29   ar
    14    29    30   ar
    15    30    18    1
    16    18     1    1
    17     1     2   ar
    18     2     3   ar
    19     3     4   ar
    20     4     7    1
    21     7     8    1
    22     8     9    1
    23     9    10    2
    24     9    11    1
    25    11    12    1
    26    12    13    1
    27    12    14    1
    28    14    15    1
    29    15    16    2
    30    15    17    1
    31     4     5   ar
    32     5     6   ar
    33    30    20   ar
    34     6     1   ar
    35    29    22   ar
    36    17     7    1
@<TRIPOS>MOLECULE
*****
 33 36 0 0 0
SMALL
GASTEIGER

@<TRIPOS>ATOM
      1 C          61.4230   90.1235   11.0134 C.ar    1  UNL1        0.0000
      2 C          62.4667   90.9760   10.3548 C.ar    1  UNL1        0.0000
      3 C          63.6427   91.4672   11.1459 C.ar    1  UNL1        0.0000
      4 C          63.7750   91.1058   12.5956 C.ar    1  UNL1        0.0000
      5 C          62.7313   90.2532   13.2543 C.ar    1  UNL1        0.0000
      6 C          61.5553   89.7620   12.4632 C.ar    1  UNL1        0.0000
      7 B          64.9510   91.5970   13.3867 B       1  UNL1        0.0000
      8 O          64.5933   91.9181   14.8075 O.3     1  UNL1        0.0000
      9 C          65.3451   92.4271   16.0015 C.2     1  UNL1        0.0000
     10 O          64.4708   92.5713   17.2118 O.2     1  UNL1        0.0000
     11 C          66.7662   92.8257   16.2692 C.3     1  UNL1        0.0000
     12 N          68.0241   92.8804   15.4538 N.3     1  UNL1        0.0000
     13 C          69.2001   93.3716   16.2448 C.3     1  UNL1        0.0000
     14 C          68.3818   92.5592   14.0330 C.3     1  UNL1        0.0000
     15 C          67.6299   92.0503   12.8390 C.2     1  UNL1        0.0000
     16 O          68.5042   91.9061   11.6287 O.2     1  UNL1        0.0000
     17 O          66.2089   91.6517   12.5713 O.3     1  UNL1        0.0000
     18 C          60.2471   89.6323   10.2224 C.3     1  UNL1        0.0000
     19 C          59.0212   89.7298    7.1995 C.3     1  UNL1        0.0000
     20 C          59.8768   88.6373    7.7692 C.ar    1  UNL1        0.0000
     21 N          60.3191   87.3979    7.0495 N.ar    1  UNL1        0.0000
     22 C          61.1560   86.5870    7.9941 C.ar    1  UNL1        0.0000
     23 C          61.8595   85.2718    7.8356 C.ar    1  UNL1        0.0000
     24 C          62.6379   84.6948    8.9808 C.ar    1  UNL1        0.0000
     25 CL         63.3414   83.3796    8.8223 Cl      1  UNL1        0.0000
     26 C          62.7127   85.4332   10.2843 C.ar    1  UNL1        0.0000
     27 CL         63.4911   84.8563   11.4294 Cl      1  UNL1        0.0000
     28 C          62.0092   86.7485   10.4427 C.ar    1  UNL1        0.0000
     29 C          61.2308   87.3254    9.2976 C.ar    1  UNL1        0.0000
     30 N          60.4402   88.5925    9.1586 N.ar    1  UNL1        0.0000
     31 N          61.7846   84.5334    6.5321 N.pl3   1  UNL1        1.0000
     32 O          62.9744   84.5006    5.6193 O.2     1  UNL1        0.0000
     33 O          60.5198   83.8278    6.1413 O.co2   1  UNL1       -1.0000
@<TRIPOS>UNITY_ATOM_ATTR
31 1
charge 1
33 1
charge -1
@<TRIPOS>BOND
     1    19    20    1
     2    20    21   ar
     3    21    22   ar
     4    22    23   ar
     5    23    31    1
     6    31    32    2
     7    31    33    1
     8    23    24   ar
     9    24    25    1
    10    24    26   ar
    11    26    27    1
    12    26    28   ar
    13    28    29   ar
    14    29    30   ar
    15    30    18    1
    16    18     1    1
    17     1     2   ar
    18     2     3   ar
    19     3     4   ar
    20     4     7    1
    21     7     8    1
    22     8     9    1
    23     9    10    2
    24     9    11    1
    25    11    12    1
    26    12    13    1
    27    12    14    1
    28    14    15    1
    29    15    16    2
    30    15    17    1
    31     4     5   ar
    32     5     6   ar
    33    30    20   ar
    34     6     1   ar
    35    29    22   ar
    36    17     7    1
@<TRIPOS>MOLECULE
*****
 33 36 0 0 0
SMALL
GASTEIGER

@<TRIPOS>ATOM
      1 C          62.5545   88.3771   11.9797 C.ar    1  UNL1        0.0000
      2 C          63.3541   87.8826   13.1485 C.ar    1  UNL1        0.0000
      3 C          64.3483   88.7875   13.8137 C.ar    1  UNL1        0.0000
      4 C          64.5430   90.1870   13.3102 C.ar    1  UNL1        0.0000
      5 C          63.7433   90.6815   12.1414 C.ar    1  UNL1        0.0000
      6 C          62.7491   89.7766   11.4761 C.ar    1  UNL1        0.0000
      7 B          65.5372   91.0919   13.9754 B       1  UNL1        0.0000
      8 O          65.0361   91.6343   15.2809 O.3     1  UNL1        0.0000
      9 C          65.5894   92.5516   16.3309 C.2     1  UNL1        0.0000
     10 O          64.6350   92.7639   17.4685 O.2     1  UNL1        0.0000
     11 C          66.8732   93.3064   16.5101 C.3     1  UNL1        0.0000
     12 N          68.1354   93.4566   15.7136 N.3     1  UNL1        0.0000
     13 C          69.1297   94.3616   16.3789 C.3     1  UNL1        0.0000
     14 C          68.6366   92.9142   14.4081 C.3     1  UNL1        0.0000
     15 C          68.0832   91.9969   13.3582 C.2     1  UNL1        0.0000
     16 O          69.0375   91.7846   12.2206 O.2     1  UNL1        0.0000
     17 O          66.7995   91.2421   13.1789 O.3     1  UNL1        0.0000
     18 C          61.5602   87.4721   11.3145 C.3     1  UNL1        0.0000
     19 C          61.8232   86.3660    8.2556 C.3     1  UNL1        0.0000
     20 C          62.0829   85.5763    9.5041 C.ar    1  UNL1        0.0000
     21 N          62.5092   84.1394    9.5659 N.ar    1  UNL1        0.0000
     22 C          62.6517   83.7598   11.0100 C.ar    1  UNL1        0.0000
     23 C          63.0457   82.4748   11.6758 C.ar    1  UNL1        0.0000
     24 C          63.1016   82.3919   13.1726 C.ar    1  UNL1        0.0000
     25 CL         63.4956   81.1068   13.8384 Cl      1  UNL1        0.0000
     26 C          62.7634   83.5941   14.0034 C.ar    1  UNL1        0.0000
     27 CL         62.8193   83.5113   15.5000 Cl      1  UNL1        0.0000
     28 C          62.3694   84.8793   13.3375 C.ar    1  UNL1        0.0000
     29 C          62.3136   84.9621   11.8408 C.ar    1  UNL1        0.0000
     30 N          61.9621   86.0847   10.9101 N.ar    1  UNL1        0.0000
     31 N          63.3838   81.2725   10.8450 N.pl3   1  UNL1        1.0000
     32 O          64.4320   81.3700    9.7765 O.2     1  UNL1        0.0000
     33 O          62.6738   79.9727   11.0828 O.co2   1  UNL1       -1.0000
@<TRIPOS>UNITY_ATOM_ATTR
31 1
charge 1
33 1
charge -1
@<TRIPOS>BOND
     1    19    20    1
     2    20    21   ar
     3    21    22   ar
     4    22    23   ar
     5    23    31    1
     6    31    32    2
     7    31    33    1
     8    23    24   ar
     9    24    25    1
    10    24    26   ar
    11    26    27    1
    12    26    28   ar
    13    28    29   ar
    14    29    30   ar
    15    30    18    1
    16    18     1    1
    17     1     2   ar
    18     2     3   ar
    19     3     4   ar
    20     4     7    1
    21     7     8    1
    22     8     9    1
    23     9    10    2
    24     9    11    1
    25    11    12    1
    26    12    13    1
    27    12    14    1
    28    14    15    1
    29    15    16    2
    30    15    17    1
    31     4     5   ar
    32     5     6   ar
    33    30    20   ar
    34     6     1   ar
    35    29    22   ar
    36    17     7    1
@<TRIPOS>MOLECULE
*****
 33 36 0 0 0
SMALL
GASTEIGER

@<TRIPOS>ATOM
      1 C          62.5575   88.3794   11.9623 C.ar    1  UNL1        0.0000
      2 C          63.3433   87.8893   13.1422 C.ar    1  UNL1        0.0000
      3 C          64.3350   88.7942   13.8112 C.ar    1  UNL1        0.0000
      4 C          64.5408   90.1895   13.3003 C.ar    1  UNL1        0.0000
      5 C          63.7549   90.6796   12.1204 C.ar    1  UNL1        0.0000
      6 C          62.7632   89.7747   11.4514 C.ar    1  UNL1        0.0000
      7 B          65.5325   91.0944   13.9693 B       1  UNL1        0.0000
      8 O          66.7992   91.2417   13.1796 O.3     1  UNL1        0.0000
      9 C          68.0829   91.9953   13.3644 C.2     1  UNL1        0.0000
     10 O          69.0431   91.7799   12.2324 O.2     1  UNL1        0.0000
     11 C          68.6315   92.9139   14.4157 C.3     1  UNL1        0.0000
     12 N          68.1238   93.4593   15.7176 N.3     1  UNL1        0.0000
     13 C          69.1155   94.3642   16.3866 C.3     1  UNL1        0.0000
     14 C          66.8572   93.3120   16.5074 C.3     1  UNL1        0.0000
     15 C          65.5735   92.5583   16.3225 C.2     1  UNL1        0.0000
     16 O          64.6132   92.7738   17.4545 O.2     1  UNL1        0.0000
     17 O          65.0248   91.6398   15.2712 O.3     1  UNL1        0.0000
     18 C          61.5658   87.4745   11.2933 C.3     1  UNL1        0.0000
     19 C          61.8478   86.3422    8.2457 C.3     1  UNL1        0.0000
     20 C          62.0946   85.5617    9.5026 C.ar    1  UNL1        0.0000
     21 N          62.5143   84.1237    9.5794 N.ar    1  UNL1        0.0000
     22 C          62.6441   83.7553   11.0277 C.ar    1  UNL1        0.0000
     23 C          63.0276   82.4742   11.7071 C.ar    1  UNL1        0.0000
     24 C          63.0716   82.4034   13.2048 C.ar    1  UNL1        0.0000
     25 CL         63.4551   81.1223   13.8842 Cl      1  UNL1        0.0000
     26 C          62.7321   83.6138   14.0231 C.ar    1  UNL1        0.0000
     27 CL         62.7760   83.5431   15.5208 Cl      1  UNL1        0.0000
     28 C          62.3485   84.8950   13.3437 C.ar    1  UNL1        0.0000
     29 C          62.3046   84.9657   11.8460 C.ar    1  UNL1        0.0000
     30 N          61.9650   86.0821   10.9035 N.ar    1  UNL1        0.0000
     31 N          63.3672   81.2638   10.8888 N.pl3   1  UNL1        1.0000
     32 O          64.3953   81.3584    9.8007 O.2     1  UNL1        0.0000
     33 O          62.6785   79.9588   11.1586 O.co2   1  UNL1       -1.0000
@<TRIPOS>UNITY_ATOM_ATTR
31 1
charge 1
33 1
charge -1
@<TRIPOS>BOND
     1    19    20    1
     2    20    21   ar
     3    21    22   ar
     4    22    23   ar
     5    23    31    1
     6    31    32    2
     7    31    33    1
     8    23    24   ar
     9    24    25    1
    10    24    26   ar
    11    26    27    1
    12    26    28   ar
    13    28    29   ar
    14    29    30   ar
    15    30    18    1
    16    18     1    1
    17     1     2   ar
    18     2     3   ar
    19     3     4   ar
    20     4     7    1
    21     7     8    1
    22     8     9    1
    23     9    10    2
    24     9    11    1
    25    11    12    1
    26    12    13    1
    27    12    14    1
    28    14    15    1
    29    15    16    2
    30    15    17    1
    31     4     5   ar
    32     5     6   ar
    33    30    20   ar
    34     6     1   ar
    35    29    22   ar
    36    17     7    1
@<TRIPOS>MOLECULE
*****
 33 36 0 0 0
SMALL
GASTEIGER

@<TRIPOS>ATOM
      1 C          59.5921   92.4062    3.5363 C.ar    1  UNL1        0.0000
      2 C          60.9753   91.8886    3.7987 C.ar    1  UNL1        0.0000
      3 C          61.2280   90.9829    4.9674 C.ar    1  UNL1        0.0000
      4 C          60.0974   90.5947    5.8737 C.ar    1  UNL1        0.0000
      5 C          58.7142   91.1124    5.6112 C.ar    1  UNL1        0.0000
      6 C          58.4615   92.0181    4.4425 C.ar    1  UNL1        0.0000
      7 B          60.3501   89.6889    7.0423 B       1  UNL1        0.0000
      8 O          59.6978   88.3480    6.8808 O.3     1  UNL1        0.0000
      9 C          59.6209   87.0993    7.7083 C.2     1  UNL1        0.0000
     10 O          58.8101   86.0230    7.0495 O.2     1  UNL1        0.0000
     11 C          60.1647   86.6744    9.0402 C.3     1  UNL1        0.0000
     12 N          61.0105   87.3222   10.0962 N.3     1  UNL1        0.0000
     13 C          61.2632   86.4165   11.2648 C.3     1  UNL1        0.0000
     14 C          61.6628   88.6632   10.2576 C.3     1  UNL1        0.0000
     15 C          61.7397   89.9119    9.4301 C.2     1  UNL1        0.0000
     16 O          62.5504   90.9882   10.0889 O.2     1  UNL1        0.0000
     17 O          61.1959   90.3368    8.0983 O.3     1  UNL1        0.0000
     18 C          59.3394   93.3120    2.3676 C.3     1  UNL1        0.0000
     19 C          58.7285   91.7153   -0.4121 C.3     1  UNL1        0.0000
     20 C          59.9566   92.5221   -0.1103 C.ar    1  UNL1        0.0000
     21 N          61.1194   92.7365   -1.0332 N.ar    1  UNL1        0.0000
     22 C          62.1189   93.6030   -0.3259 C.ar    1  UNL1        0.0000
     23 C          63.4550   94.1411   -0.7445 C.ar    1  UNL1        0.0000
     24 C          64.2460   95.0003    0.1969 C.ar    1  UNL1        0.0000
     25 CL         65.5821   95.5384   -0.2218 Cl      1  UNL1        0.0000
     26 C          63.7009   95.3213    1.5570 C.ar    1  UNL1        0.0000
     27 CL         64.4918   96.1804    2.4984 Cl      1  UNL1        0.0000
     28 C          62.3647   94.7831    1.9756 C.ar    1  UNL1        0.0000
     29 C          61.5738   93.9240    1.0342 C.ar    1  UNL1        0.0000
     30 N          60.2374   93.2560    1.1674 N.ar    1  UNL1        0.0000
     31 N          64.0001   93.8201   -2.1046 N.pl3   1  UNL1        1.0000
     32 O          64.5364   94.9171   -2.9758 O.2     1  UNL1        0.0000
     33 O          64.0091   92.4019   -2.5935 O.co2   1  UNL1       -1.0000
@<TRIPOS>UNITY_ATOM_ATTR
31 1
charge 1
33 1
charge -1
@<TRIPOS>BOND
     1    19    20    1
     2    20    21   ar
     3    21    22   ar
     4    22    23   ar
     5    23    31    1
     6    31    32    2
     7    31    33    1
     8    23    24   ar
     9    24    25    1
    10    24    26   ar
    11    26    27    1
    12    26    28   ar
    13    28    29   ar
    14    29    30   ar
    15    30    18    1
    16    18     1    1
    17     1     2   ar
    18     2     3   ar
    19     3     4   ar
    20     4     7    1
    21     7     8    1
    22     8     9    1
    23     9    10    2
    24     9    11    1
    25    11    12    1
    26    12    13    1
    27    12    14    1
    28    14    15    1
    29    15    16    2
    30    15    17    1
    31     4     5   ar
    32     5     6   ar
    33    30    20   ar
    34     6     1   ar
    35    29    22   ar
    36    17     7    1
@<TRIPOS>MOLECULE
*****
 33 36 0 0 0
SMALL
GASTEIGER

@<TRIPOS>ATOM
      1 C          59.5798   92.4075    3.5372 C.ar    1  UNL1        0.0000
      2 C          60.9636   91.8909    3.7981 C.ar    1  UNL1        0.0000
      3 C          61.2180   90.9843    4.9658 C.ar    1  UNL1        0.0000
      4 C          60.0885   90.5943    5.8725 C.ar    1  UNL1        0.0000
      5 C          58.7046   91.1109    5.6116 C.ar    1  UNL1        0.0000
      6 C          58.4502   92.0175    4.4439 C.ar    1  UNL1        0.0000
      7 B          60.3429   89.6877    7.0402 B       1  UNL1        0.0000
      8 O          61.1832   90.3376    8.0991 O.3     1  UNL1        0.0000
      9 C          61.7260   89.9130    9.4314 C.2     1  UNL1        0.0000
     10 O          62.5303   90.9920   10.0939 O.2     1  UNL1        0.0000
     11 C          61.6533   88.6625   10.2566 C.3     1  UNL1        0.0000
     12 N          61.0076   87.3186   10.0913 N.3     1  UNL1        0.0000
     13 C          61.2620   86.4121   11.2589 C.3     1  UNL1        0.0000
     14 C          60.1672   86.6687    9.0324 C.3     1  UNL1        0.0000
     15 C          59.6245   87.0934    7.7001 C.2     1  UNL1        0.0000
     16 O          58.8202   86.0144    7.0375 O.2     1  UNL1        0.0000
     17 O          59.6972   88.3439    6.8749 O.3     1  UNL1        0.0000
     18 C          59.3254   93.3140    2.3696 C.3     1  UNL1        0.0000
     19 C          58.6998   91.7244   -0.4110 C.3     1  UNL1        0.0000
     20 C          59.9320   92.5258   -0.1115 C.ar    1  UNL1        0.0000
     21 N          61.0929   92.7372   -1.0375 N.ar    1  UNL1        0.0000
     22 C          62.0979   93.5985   -0.3318 C.ar    1  UNL1        0.0000
     23 C          63.4349   94.1320   -0.7535 C.ar    1  UNL1        0.0000
     24 C          64.2321   94.9865    0.1869 C.ar    1  UNL1        0.0000
     25 CL         65.5690   95.5200   -0.2348 Cl      1  UNL1        0.0000
     26 C          63.6923   95.3074    1.5491 C.ar    1  UNL1        0.0000
     27 CL         64.4894   96.1619    2.4896 Cl      1  UNL1        0.0000
     28 C          62.3553   94.7739    1.9709 C.ar    1  UNL1        0.0000
     29 C          61.5581   93.9194    1.0304 C.ar    1  UNL1        0.0000
     30 N          60.2195   93.2564    1.1665 N.ar    1  UNL1        0.0000
     31 N          63.9747   93.8111   -2.1158 N.pl3   1  UNL1        1.0000
     32 O          64.0661   92.3842   -2.5693 O.2     1  UNL1        0.0000
     33 O          64.4231   94.9171   -3.0245 O.co2   1  UNL1       -1.0000
@<TRIPOS>UNITY_ATOM_ATTR
31 1
charge 1
33 1
charge -1
@<TRIPOS>BOND
     1    19    20    1
     2    20    21   ar
     3    21    22   ar
     4    22    23   ar
     5    23    31    1
     6    31    32    2
     7    31    33    1
     8    23    24   ar
     9    24    25    1
    10    24    26   ar
    11    26    27    1
    12    26    28   ar
    13    28    29   ar
    14    29    30   ar
    15    30    18    1
    16    18     1    1
    17     1     2   ar
    18     2     3   ar
    19     3     4   ar
    20     4     7    1
    21     7     8    1
    22     8     9    1
    23     9    10    2
    24     9    11    1
    25    11    12    1
    26    12    13    1
    27    12    14    1
    28    14    15    1
    29    15    16    2
    30    15    17    1
    31     4     5   ar
    32     5     6   ar
    33    30    20   ar
    34     6     1   ar
    35    29    22   ar
    36    17     7    1
