@<TRIPOS>MOLECULE
*****
 45 50 0 0 0
SMALL
GASTEIGER

@<TRIPOS>ATOM
      1 C          60.9814   87.2642    9.2413 C.2     1  UNL1        0.0141
      2 C          60.4238   87.5171    7.8720 C.2     1  UNL1        0.1370
      3 F          59.7018   88.7995    7.5812 F       1  UNL1       -0.2045
      4 C          60.5882   86.4878    6.7934 C.2     1  UNL1        0.0350
      5 C          61.3101   85.2055    7.0842 C.2     1  UNL1        0.0695
      6 C          61.8677   84.9526    8.4535 C.2     1  UNL1        0.0705
      7 N          62.6211   83.7916    9.0318 N.2     1  UNL1       -0.2538
      8 C          62.9223   84.1034   10.4678 C.2     1  UNL1        0.0514
      9 C          62.3551   85.4572   10.7770 C.2     1  UNL1       -0.0213
     10 C          61.7033   85.9820    9.5321 C.3     1  UNL1        0.0841
     11 C          62.5054   86.0371   12.1522 C.3     1  UNL1        0.0240
     12 C          63.2229   85.2632   13.2181 C.3     1  UNL1        0.0071
     13 C          63.7901   83.9094   12.9089 C.3     1  UNL1        0.0309
     14 C          63.6398   83.3295   11.5338 C.3     1  UNL1        0.0475
     15 C          63.3416   88.8814   10.1439 C.3     1  UNL1        0.0325
     16 C          61.9971   89.1022   10.7711 C.ar    1  UNL1       -0.0057
     17 C          60.8170   88.2937   10.3200 C.ar    1  UNL1       -0.0037
     18 C          59.4725   88.5145   10.9472 C.ar    1  UNL1       -0.0004
     19 C          59.3081   89.5439   12.0258 C.ar    1  UNL1        0.0015
     20 C          60.4881   90.3524   12.4770 C.ar    1  UNL1        0.0174
     21 C          61.8327   90.1316   11.8497 C.ar    1  UNL1        0.0671
     22 N          63.0127   90.9402   12.3009 N.ar    1  UNL1       -0.2275
     23 C          63.4796   90.8560   13.7240 C.ar    1  UNL1        0.2695
     24 O          62.7663   89.9633   14.6958 O.2     1  UNL1       -0.2665
     25 C          64.6597   91.6646   14.1753 C.ar    1  UNL1        0.0747
     26 C          65.1265   91.5804   15.5983 C.ar    1  UNL1        0.0063
     27 C          66.3066   92.3890   16.0495 C.ar    1  UNL1        0.0026
     28 C          67.0198   93.2817   15.0777 C.ar    1  UNL1        0.0311
     29 C          66.5530   93.3659   13.6547 C.ar    1  UNL1        0.1560
     30 F          67.2663   94.2586   12.6829 F       1  UNL1       -0.2026
     31 C          65.3730   92.5573   13.2035 C.ar    1  UNL1        0.0959
     32 N          64.9061   92.6414   11.7804 N.ar    1  UNL1       -0.2767
     33 C          65.6194   93.5341   10.8086 C.3     1  UNL1        0.1352
     34 C          63.7260   91.8329   11.3292 C.ar    1  UNL1        0.3378
     35 O          63.2592   91.9170    9.9062 O.2     1  UNL1       -0.2458
     36 C          61.4745   84.1761    6.0056 C.2     1  UNL1        0.2440
     37 N          62.7264   84.1483    5.1800 N.am    1  UNL1       -0.3253
     38 O          60.3868   83.1746    5.7526 O.2     1  UNL1       -0.2703
     39 H          63.4403   84.8056    5.3460 H       1  UNL1        0.1453
     40 H          62.8343   83.4727    4.4720 H       1  UNL1        0.1453
     41 C          64.5076   83.1356   13.9749 C.3     1  UNL1        0.0888
     42 C          65.0788   84.4122   14.5172 C.3     1  UNL1        0.0293
     43 C          63.9365   81.8590   13.4327 C.3     1  UNL1        0.0293
     44 O          65.2251   82.3618   15.0409 O.3     1  UNL1       -0.3867
     45 H          65.7280   82.9733   15.6013 H       1  UNL1        0.2102
@<TRIPOS>BOND
     1    15    16    1
     2    16    17   ar
     3    17     1    1
     4     1     2    2
     5     2     3    1
     6     2     4    1
     7     4     5    2
     8     5    36    1
     9    36    37   am
    10    36    38    2
    11     5     6    1
    12     6     7    2
    13     7     8    1
    14     8     9    2
    15     9    10    1
    16     9    11    1
    17    11    12    1
    18    12    13    1
    19    13    41    1
    20    41    42    1
    21    41    43    1
    22    41    44    1
    23    13    14    1
    24    17    18   ar
    25    18    19   ar
    26    19    20   ar
    27    20    21   ar
    28    21    22    1
    29    22    23   ar
    30    23    24    2
    31    23    25   ar
    32    25    26   ar
    33    26    27   ar
    34    27    28   ar
    35    28    29   ar
    36    29    30    1
    37    29    31   ar
    38    31    32   ar
    39    32    33    1
    40    32    34   ar
    41    34    35    2
    42    21    16   ar
    43    34    22   ar
    44    10     1    1
    45    31    25   ar
    46    10     6    1
    47    14     8    1
    48    37    39    1
    49    37    40    1
    50    44    45    1
@<TRIPOS>MOLECULE
*****
 45 50 0 0 0
SMALL
GASTEIGER

@<TRIPOS>ATOM
      1 C          60.9216   87.1701    9.2985 C.2     1  UNL1        0.0141
      2 C          60.4311   87.4879    7.9171 C.2     1  UNL1        0.1370
      3 F          59.7220   88.7831    7.6524 F       1  UNL1       -0.2045
      4 C          60.6497   86.5107    6.8003 C.2     1  UNL1        0.0350
      5 C          61.3587   85.2156    7.0650 C.2     1  UNL1        0.0695
      6 C          61.8492   84.8978    8.4465 C.2     1  UNL1        0.0705
      7 N          62.5754   83.7103    9.0053 N.2     1  UNL1       -0.2538
      8 C          62.8056   83.9535   10.4674 C.2     1  UNL1        0.0514
      9 C          62.2217   85.2915   10.8123 C.2     1  UNL1       -0.0213
     10 C          61.6306   85.8751    9.5633 C.3     1  UNL1        0.0841
     11 C          62.3037   85.8055   12.2190 C.3     1  UNL1        0.0240
     12 C          62.9696   84.9816   13.2809 C.3     1  UNL1        0.0071
     13 C          63.5535   83.6437   12.9361 C.3     1  UNL1        0.0309
     14 C          63.4715   83.1296   11.5293 C.3     1  UNL1        0.0475
     15 C          63.2342   88.7328   10.3986 C.3     1  UNL1        0.0325
     16 C          61.8594   88.9287   10.9653 C.ar    1  UNL1       -0.0057
     17 C          60.7030   88.1475   10.4153 C.ar    1  UNL1       -0.0037
     18 C          59.3281   88.3434   10.9820 C.ar    1  UNL1       -0.0004
     19 C          59.1095   89.3207   12.0988 C.ar    1  UNL1        0.0015
     20 C          60.2658   90.1020   12.6488 C.ar    1  UNL1        0.0174
     21 C          61.6407   89.9060   12.0820 C.ar    1  UNL1        0.0671
     22 N          62.7970   90.6873   12.6320 N.ar    1  UNL1       -0.2275
     23 C          63.5899   91.5877   11.7316 C.ar    1  UNL1        0.2695
     24 O          63.2264   91.7068   10.2812 O.2     1  UNL1       -0.2665
     25 C          64.7462   92.3690   12.2816 C.ar    1  UNL1        0.0747
     26 C          65.5390   93.2694   11.3812 C.ar    1  UNL1        0.0063
     27 C          66.6953   94.0507   11.9312 C.ar    1  UNL1        0.0026
     28 C          67.0588   93.9316   13.3816 C.ar    1  UNL1        0.0311
     29 C          66.2660   93.0313   14.2820 C.ar    1  UNL1        0.1560
     30 F          66.6295   92.9122   15.7325 F       1  UNL1       -0.2026
     31 C          65.1097   92.2500   13.7320 C.ar    1  UNL1        0.0959
     32 N          64.3168   91.3495   14.6325 N.ar    1  UNL1       -0.2767
     33 C          64.6803   91.2305   16.0829 C.3     1  UNL1        0.1352
     34 C          63.1605   90.5682   14.0825 C.ar    1  UNL1        0.3378
     35 O          62.3677   89.6679   14.9828 O.2     1  UNL1       -0.2458
     36 C          61.5772   84.2384    5.9482 C.2     1  UNL1        0.2440
     37 N          62.8716   84.2428    5.1903 N.am    1  UNL1       -0.3253
     38 O          60.5014   83.2566    5.5894 O.2     1  UNL1       -0.2703
     39 H          63.5777   84.8872    5.4258 H       1  UNL1        0.1453
     40 H          63.0150   83.6014    4.4573 H       1  UNL1        0.1453
     41 C          64.2194   82.8197   13.9981 C.3     1  UNL1        0.0888
     42 C          64.6068   84.0722   14.7268 C.3     1  UNL1        0.0293
     43 C          63.8321   81.5672   13.2693 C.3     1  UNL1        0.0293
     44 O          64.8853   81.9959   15.0601 O.3     1  UNL1       -0.3867
     45 H          65.2650   82.5819   15.7333 H       1  UNL1        0.2102
@<TRIPOS>BOND
     1    15    16    1
     2    16    17   ar
     3    17     1    1
     4     1     2    2
     5     2     3    1
     6     2     4    1
     7     4     5    2
     8     5    36    1
     9    36    37   am
    10    36    38    2
    11     5     6    1
    12     6     7    2
    13     7     8    1
    14     8     9    2
    15     9    10    1
    16     9    11    1
    17    11    12    1
    18    12    13    1
    19    13    41    1
    20    41    42    1
    21    41    43    1
    22    41    44    1
    23    13    14    1
    24    17    18   ar
    25    18    19   ar
    26    19    20   ar
    27    20    21   ar
    28    21    22    1
    29    22    23   ar
    30    23    24    2
    31    23    25   ar
    32    25    26   ar
    33    26    27   ar
    34    27    28   ar
    35    28    29   ar
    36    29    30    1
    37    29    31   ar
    38    31    32   ar
    39    32    33    1
    40    32    34   ar
    41    34    35    2
    42    21    16   ar
    43    34    22   ar
    44    10     1    1
    45    31    25   ar
    46    10     6    1
    47    14     8    1
    48    37    39    1
    49    37    40    1
    50    44    45    1
@<TRIPOS>MOLECULE
*****
 45 50 0 0 0
SMALL
GASTEIGER

@<TRIPOS>ATOM
      1 C          64.3972   90.5654   14.1478 C.2     1  UNL1        0.0141
      2 C          65.3925   91.5739   14.6400 C.2     1  UNL1        0.1370
      3 F          65.9000   91.5005   16.0497 F       1  UNL1       -0.2045
      4 C          65.8803   92.6558   13.7226 C.2     1  UNL1        0.0350
      5 C          65.3727   92.7292   12.3130 C.2     1  UNL1        0.0695
      6 C          64.3774   91.7207   11.8208 C.2     1  UNL1        0.0705
      7 N          63.7029   91.5415   10.4931 N.2     1  UNL1       -0.2538
      8 C          62.7983   90.3489   10.5898 C.2     1  UNL1        0.0514
      9 C          62.9137   89.7909   11.9774 C.2     1  UNL1       -0.0213
     10 C          63.8896   90.6388   12.7382 C.3     1  UNL1        0.0841
     11 C          62.1152   88.5830   12.3689 C.3     1  UNL1        0.0240
     12 C          61.2014   87.9330   11.3728 C.3     1  UNL1        0.0071
     13 C          61.0860   88.4909    9.9852 C.3     1  UNL1        0.0309
     14 C          61.8844   89.6989    9.5937 C.3     1  UNL1        0.0475
     15 C          64.4976   87.6977   13.2721 C.3     1  UNL1        0.0325
     16 C          63.9597   88.0497   14.6273 C.ar    1  UNL1       -0.0057
     17 C          63.9094   89.4834   15.0652 C.ar    1  UNL1       -0.0037
     18 C          63.3715   89.8354   16.4204 C.ar    1  UNL1       -0.0004
     19 C          62.8838   88.7535   17.3379 C.ar    1  UNL1        0.0015
     20 C          62.9340   87.3198   16.9000 C.ar    1  UNL1        0.0174
     21 C          63.4719   86.9678   15.5447 C.ar    1  UNL1        0.0671
     22 N          63.5222   85.5340   15.1069 N.ar    1  UNL1       -0.2275
     23 C          62.2653   84.7158   15.0725 C.ar    1  UNL1        0.2695
     24 O          60.9583   85.3315   15.4759 O.2     1  UNL1       -0.2665
     25 C          62.3155   83.2821   14.6346 C.ar    1  UNL1        0.0747
     26 C          61.0588   82.4640   14.6002 C.ar    1  UNL1        0.0063
     27 C          61.1090   81.0302   14.1624 C.ar    1  UNL1        0.0026
     28 C          62.4160   80.4145   13.7590 C.ar    1  UNL1        0.0311
     29 C          63.6728   81.2326   13.7934 C.ar    1  UNL1        0.1560
     30 F          64.9797   80.6169   13.3899 F       1  UNL1       -0.2026
     31 C          63.6225   82.6664   14.2312 C.ar    1  UNL1        0.0959
     32 N          64.8794   83.4846   14.2656 N.ar    1  UNL1       -0.2767
     33 C          66.1864   82.8689   13.8622 C.3     1  UNL1        0.1352
     34 C          64.8292   84.9184   14.7035 C.ar    1  UNL1        0.3378
     35 O          66.0858   85.7365   14.7379 O.2     1  UNL1       -0.2458
     36 C          65.8605   93.8111   11.3957 C.2     1  UNL1        0.2440
     37 N          65.7325   93.6489    9.9101 N.am    1  UNL1       -0.3253
     38 O          66.4763   95.0553   11.9640 O.2     1  UNL1       -0.2703
     39 H          65.3283   92.8324    9.5370 H       1  UNL1        0.1453
     40 H          66.0526   94.3590    9.3080 H       1  UNL1        0.1453
     41 C          60.1720   87.8408    8.9891 C.3     1  UNL1        0.0888
     42 C          60.5543   86.4908    9.5194 C.3     1  UNL1        0.0293
     43 C          59.7898   89.1908    8.4587 C.3     1  UNL1        0.0293
     44 O          59.2582   87.1908    7.9930 O.3     1  UNL1       -0.3867
     45 H          59.2942   86.2275    8.1017 H       1  UNL1        0.2102
@<TRIPOS>BOND
     1    15    16    1
     2    16    17   ar
     3    17     1    1
     4     1     2    2
     5     2     3    1
     6     2     4    1
     7     4     5    2
     8     5    36    1
     9    36    37   am
    10    36    38    2
    11     5     6    1
    12     6     7    2
    13     7     8    1
    14     8     9    2
    15     9    10    1
    16     9    11    1
    17    11    12    1
    18    12    13    1
    19    13    41    1
    20    41    42    1
    21    41    43    1
    22    41    44    1
    23    13    14    1
    24    17    18   ar
    25    18    19   ar
    26    19    20   ar
    27    20    21   ar
    28    21    22    1
    29    22    23   ar
    30    23    24    2
    31    23    25   ar
    32    25    26   ar
    33    26    27   ar
    34    27    28   ar
    35    28    29   ar
    36    29    30    1
    37    29    31   ar
    38    31    32   ar
    39    32    33    1
    40    32    34   ar
    41    34    35    2
    42    21    16   ar
    43    34    22   ar
    44    10     1    1
    45    31    25   ar
    46    10     6    1
    47    14     8    1
    48    37    39    1
    49    37    40    1
    50    44    45    1
@<TRIPOS>MOLECULE
*****
 45 50 0 0 0
SMALL
GASTEIGER

@<TRIPOS>ATOM
      1 C          63.5529   90.4071   13.8364 C.2     1  UNL1        0.0141
      2 C          63.2158   90.0881   15.2628 C.2     1  UNL1        0.1370
      3 F          62.2257   89.0055   15.5753 F       1  UNL1       -0.2045
      4 C          63.8688   90.8517   16.3766 C.2     1  UNL1        0.0350
      5 C          64.8589   91.9342   16.0640 C.2     1  UNL1        0.0695
      6 C          65.1960   92.2533   14.6376 C.2     1  UNL1        0.0705
      7 N          66.1265   93.2588   14.0269 N.2     1  UNL1       -0.2538
      8 C          66.0486   93.1167   12.5357 C.2     1  UNL1        0.0514
      9 C          65.0700   92.0233   12.2247 C.2     1  UNL1       -0.0213
     10 C          64.5430   91.4897   13.5238 C.3     1  UNL1        0.0841
     11 C          64.7851   91.6549   10.7989 C.3     1  UNL1        0.0240
     12 C          65.4789   92.3799    9.6840 C.3     1  UNL1        0.0071
     13 C          66.4576   93.4733    9.9950 C.3     1  UNL1        0.0309
     14 C          66.7424   93.8417   11.4208 C.3     1  UNL1        0.0475
     15 C          63.9284   87.4377   13.6317 C.3     1  UNL1        0.0325
     16 C          63.0877   88.1588   12.6203 C.ar    1  UNL1       -0.0057
     17 C          62.8999   89.6435   12.7225 C.ar    1  UNL1       -0.0037
     18 C          62.0592   90.3646   11.7111 C.ar    1  UNL1       -0.0004
     19 C          61.4062   89.6010   10.5973 C.ar    1  UNL1        0.0015
     20 C          61.5939   88.1164   10.4950 C.ar    1  UNL1        0.0174
     21 C          62.4347   87.3953   11.5065 C.ar    1  UNL1        0.0671
     22 N          62.6225   85.9106   11.4042 N.ar    1  UNL1       -0.2275
     23 C          62.4092   85.0428   12.6090 C.ar    1  UNL1        0.2695
     24 O          62.0081   85.6598   13.9162 O.2     1  UNL1       -0.2665
     25 C          62.5969   83.5581   12.5067 C.ar    1  UNL1        0.0747
     26 C          62.3837   82.6904   13.7116 C.ar    1  UNL1        0.0063
     27 C          62.5714   81.2058   13.6092 C.ar    1  UNL1        0.0026
     28 C          62.9725   80.5888   12.3021 C.ar    1  UNL1        0.0311
     29 C          63.1858   81.4565   11.0973 C.ar    1  UNL1        0.1560
     30 F          63.5868   80.8396    9.7902 F       1  UNL1       -0.2026
     31 C          62.9980   82.9412   11.1996 C.ar    1  UNL1        0.0959
     32 N          63.2113   83.8090    9.9948 N.ar    1  UNL1       -0.2767
     33 C          63.6123   83.1920    8.6876 C.3     1  UNL1        0.1352
     34 C          63.0235   85.2936   10.0971 C.ar    1  UNL1        0.3378
     35 O          63.2368   86.1614    8.8923 O.2     1  UNL1       -0.2458
     36 C          65.5118   92.6978   17.1778 C.2     1  UNL1        0.2440
     37 N          66.9471   93.1170   17.0591 N.am    1  UNL1       -0.3253
     38 O          64.7294   93.0422   18.4105 O.2     1  UNL1       -0.2703
     39 H          67.4606   92.8909   16.2501 H       1  UNL1        0.1453
     40 H          67.3756   93.6181   17.7901 H       1  UNL1        0.1453
     41 C          67.1514   94.1983    8.8800 C.3     1  UNL1        0.0888
     42 C          68.1240   93.0640    8.7477 C.3     1  UNL1        0.0293
     43 C          66.1788   95.3325    9.0122 C.3     1  UNL1        0.0293
     44 O          67.8452   94.9232    7.7650 O.3     1  UNL1       -0.3867
     45 H          68.5877   94.3879    7.4441 H       1  UNL1        0.2102
@<TRIPOS>BOND
     1    15    16    1
     2    16    17   ar
     3    17     1    1
     4     1     2    2
     5     2     3    1
     6     2     4    1
     7     4     5    2
     8     5    36    1
     9    36    37   am
    10    36    38    2
    11     5     6    1
    12     6     7    2
    13     7     8    1
    14     8     9    2
    15     9    10    1
    16     9    11    1
    17    11    12    1
    18    12    13    1
    19    13    41    1
    20    41    42    1
    21    41    43    1
    22    41    44    1
    23    13    14    1
    24    17    18   ar
    25    18    19   ar
    26    19    20   ar
    27    20    21   ar
    28    21    22    1
    29    22    23   ar
    30    23    24    2
    31    23    25   ar
    32    25    26   ar
    33    26    27   ar
    34    27    28   ar
    35    28    29   ar
    36    29    30    1
    37    29    31   ar
    38    31    32   ar
    39    32    33    1
    40    32    34   ar
    41    34    35    2
    42    21    16   ar
    43    34    22   ar
    44    10     1    1
    45    31    25   ar
    46    10     6    1
    47    14     8    1
    48    37    39    1
    49    37    40    1
    50    44    45    1
