@<TRIPOS>MOLECULE
*****
 30 32 0 0 0
SMALL
GASTEIGER

@<TRIPOS>ATOM
      1 C          61.8462   88.5037   11.2997 C.ar    1  UNL1        0.0577
      2 C          62.8361   88.4484   12.4254 C.ar    1  UNL1        0.0462
      3 C          63.7420   89.6153   12.6854 C.ar    1  UNL1        0.1602
      4 F          64.7319   89.5601   13.8110 F       1  UNL1       -0.2027
      5 C          63.6580   90.8375   11.8198 C.ar    1  UNL1        0.1534
      6 C          62.6681   90.8928   10.6942 C.ar    1  UNL1        0.0351
      7 C          61.7622   89.7259   10.4342 C.ar    1  UNL1        0.0722
      8 CL         60.7723   89.7811    9.3086 Cl      1  UNL1       -0.0809
      9 S          64.5640   92.0044   12.0798 S.O2    1  UNL1        0.0773
     10 O          64.1721   91.9860   13.5276 O.2     1  UNL1       -0.1498
     11 O          64.9558   92.0228   10.6320 O.2     1  UNL1       -0.1498
     12 N          65.4699   93.1713   12.3398 N.pl3   1  UNL1       -0.1925
     13 H          65.3350   94.0171   11.8542 H       1  UNL1        0.1758
     14 C          66.5814   93.0497   13.3398 C.ar    1  UNL1        0.1977
     15 N          66.7491   93.8809   14.5771 N.ar    1  UNL1       -0.1997
     16 C          67.9917   93.4204   15.2800 C.ar    1  UNL1        0.2082
     17 N          68.5919   92.3046   14.4771 N.ar    1  UNL1       -0.1840
     18 S          67.7203   92.0755   13.2780 S.2     1  UNL1        0.0508
     19 N          60.9402   87.3368   11.0397 N.pl3   1  UNL1       -0.3319
     20 H          60.0564   87.2941   11.4712 H       1  UNL1        0.1468
     21 C          61.3809   86.2350   10.1222 C.3     1  UNL1        0.0870
     22 N          65.1774   82.0278   12.0936 N.3     1  UNL1       -0.3222
     23 C          64.2283   83.0796   11.6008 C.3     1  UNL1        0.0508
     24 C          64.1472   83.3894   10.1354 C.3     1  UNL1        0.0155
     25 C          63.1980   84.4412    9.6425 C.3     1  UNL1        0.0031
     26 C          62.3301   85.1832   10.6151 C.3     1  UNL1        0.0196
     27 C          62.4112   84.8735   12.0805 C.3     1  UNL1        0.0031
     28 C          63.3603   83.8217   12.5733 C.3     1  UNL1        0.0155
     29 H          65.6838   81.6294   11.3029 H       1  UNL1        0.1188
     30 H          64.6534   81.2920   12.5674 H       1  UNL1        0.1188
@<TRIPOS>BOND
     1    23    22    1
     2    23    24    1
     3    24    25    1
     4    25    26    1
     5    26    21    1
     6    21    19    1
     7    19     1    1
     8     1     2   ar
     9     2     3   ar
    10     3     4    1
    11     3     5   ar
    12     5     9    1
    13     9    10    2
    14     9    11    2
    15     9    12    1
    16    12    14    1
    17    14    15   ar
    18    15    16   ar
    19    16    17   ar
    20    17    18   ar
    21     5     6   ar
    22     6     7   ar
    23     7     8    1
    24    26    27    1
    25    27    28    1
    26    28    23    1
    27     7     1   ar
    28    18    14   ar
    29    22    29    1
    30    22    30    1
    31    19    20    1
    32    12    13    1
@<TRIPOS>MOLECULE
*****
 30 32 0 0 0
SMALL
GASTEIGER

@<TRIPOS>ATOM
      1 C          63.4966   89.6523   15.3600 C.ar    1  UNL1        0.0577
      2 C          63.3047   88.8752   16.6287 C.ar    1  UNL1        0.0462
      3 C          63.4493   87.3822   16.6228 C.ar    1  UNL1        0.1602
      4 F          63.2574   86.6051   17.8914 F       1  UNL1       -0.2027
      5 C          63.7859   86.6663   15.3483 C.ar    1  UNL1        0.1534
      6 C          63.9778   87.4433   14.0798 C.ar    1  UNL1        0.0351
      7 C          63.8332   88.9363   14.0856 C.ar    1  UNL1        0.0722
      8 CL         64.0251   89.7134   12.8170 Cl      1  UNL1       -0.0809
      9 S          63.9306   85.1733   15.3425 S.O2    1  UNL1        0.0773
     10 O          65.3780   85.3149   14.9753 O.2     1  UNL1       -0.1498
     11 O          62.4831   85.0316   15.7097 O.2     1  UNL1       -0.1498
     12 N          64.0752   83.6803   15.3367 N.pl3   1  UNL1       -0.1925
     13 H          64.6572   83.2395   15.9971 H       1  UNL1        0.1758
     14 C          63.3330   82.8588   14.3245 C.ar    1  UNL1        0.1977
     15 N          62.3716   81.7473   14.6248 N.ar    1  UNL1       -0.1997
     16 C          61.8664   81.2061   13.3203 C.ar    1  UNL1        0.2082
     17 N          62.5156   81.9833   12.2136 N.ar    1  UNL1       -0.1840
     18 S          63.4220   83.0047   12.8342 S.2     1  UNL1        0.0508
     19 N          63.3520   91.1453   15.3658 N.pl3   1  UNL1       -0.3319
     20 H          62.5846   91.5672   14.9161 H       1  UNL1        0.1468
     21 C          64.3765   91.9953   16.0569 C.3     1  UNL1        0.0870
     22 N          69.9645   92.3116   13.8949 N.3     1  UNL1       -0.3222
     23 C          68.5675   92.2326   14.4354 C.3     1  UNL1        0.0508
     24 C          68.3048   92.5320   15.8815 C.3     1  UNL1        0.0155
     25 C          66.9078   92.4529   16.4220 C.3     1  UNL1        0.0031
     26 C          65.7735   92.0744   15.5164 C.3     1  UNL1        0.0196
     27 C          66.0363   91.7750   14.0703 C.3     1  UNL1        0.0031
     28 C          67.4333   91.8541   13.5298 C.3     1  UNL1        0.0155
     29 H          70.6038   92.5805   14.6428 H       1  UNL1        0.1188
     30 H          70.0018   93.0069   13.1494 H       1  UNL1        0.1188
@<TRIPOS>BOND
     1    23    22    1
     2    23    24    1
     3    24    25    1
     4    25    26    1
     5    26    21    1
     6    21    19    1
     7    19     1    1
     8     1     2   ar
     9     2     3   ar
    10     3     4    1
    11     3     5   ar
    12     5     9    1
    13     9    10    2
    14     9    11    2
    15     9    12    1
    16    12    14    1
    17    14    15   ar
    18    15    16   ar
    19    16    17   ar
    20    17    18   ar
    21     5     6   ar
    22     6     7   ar
    23     7     8    1
    24    26    27    1
    25    27    28    1
    26    28    23    1
    27     7     1   ar
    28    18    14   ar
    29    22    29    1
    30    22    30    1
    31    19    20    1
    32    12    13    1
@<TRIPOS>MOLECULE
*****
 30 32 0 0 0
SMALL
GASTEIGER

@<TRIPOS>ATOM
      1 C          62.4547   89.4520   11.8311 C.ar    1  UNL1        0.0577
      2 C          63.4377   89.5246   12.9619 C.ar    1  UNL1        0.0462
      3 C          64.5069   90.5767   12.9597 C.ar    1  UNL1        0.1602
      4 F          65.4899   90.6493   14.0904 F       1  UNL1       -0.2027
      5 C          64.5931   91.5561   11.8268 C.ar    1  UNL1        0.1534
      6 C          63.6102   91.4834   10.6961 C.ar    1  UNL1        0.0351
      7 C          62.5410   90.4313   10.6983 C.ar    1  UNL1        0.0722
      8 CL         61.5581   90.3587    9.5676 Cl      1  UNL1       -0.0809
      9 S          65.6624   92.6081   11.8247 S.O2    1  UNL1        0.0773
     10 O          65.2462   93.0338   13.2014 O.2     1  UNL1       -0.1498
     11 O          66.0785   92.1824   10.4479 O.2     1  UNL1       -0.1498
     12 N          66.7316   93.6601   11.8225 N.pl3   1  UNL1       -0.1925
     13 H          67.4323   93.6512   12.5140 H       1  UNL1        0.1758
     14 C          66.7331   94.7258   10.7668 C.ar    1  UNL1        0.1977
     15 N          67.7721   94.9091    9.7006 N.ar    1  UNL1       -0.1997
     16 C          67.3771   96.0917    8.8668 C.ar    1  UNL1        0.2082
     17 N          66.0939   96.6394    9.4177 N.ar    1  UNL1       -0.1840
     18 S          65.6959   95.7952   10.5920 S.2     1  UNL1        0.0508
     19 N          61.3855   88.3999   11.8332 N.pl3   1  UNL1       -0.3319
     20 H          60.7913   88.3036   12.6122 H       1  UNL1        0.1468
     21 C          61.2217   87.4947   10.6485 C.3     1  UNL1        0.0870
     22 N          64.5247   82.5052   10.2059 N.3     1  UNL1       -0.3222
     23 C          63.6989   83.7526   10.3165 C.3     1  UNL1        0.0508
     24 C          63.1818   84.1936   11.6537 C.3     1  UNL1        0.0155
     25 C          62.3561   85.4409   11.7644 C.3     1  UNL1        0.0031
     26 C          62.0474   86.2473   10.5379 C.3     1  UNL1        0.0196
     27 C          62.5645   85.8063    9.2007 C.3     1  UNL1        0.0031
     28 C          63.3903   84.5590    9.0900 C.3     1  UNL1        0.0155
     29 H          64.6347   82.0872   11.1298 H       1  UNL1        0.1188
     30 H          65.4425   82.7376    9.8264 H       1  UNL1        0.1188
@<TRIPOS>BOND
     1    23    22    1
     2    23    24    1
     3    24    25    1
     4    25    26    1
     5    26    21    1
     6    21    19    1
     7    19     1    1
     8     1     2   ar
     9     2     3   ar
    10     3     4    1
    11     3     5   ar
    12     5     9    1
    13     9    10    2
    14     9    11    2
    15     9    12    1
    16    12    14    1
    17    14    15   ar
    18    15    16   ar
    19    16    17   ar
    20    17    18   ar
    21     5     6   ar
    22     6     7   ar
    23     7     8    1
    24    26    27    1
    25    27    28    1
    26    28    23    1
    27     7     1   ar
    28    18    14   ar
    29    22    29    1
    30    22    30    1
    31    19    20    1
    32    12    13    1
@<TRIPOS>MOLECULE
*****
 30 32 0 0 0
SMALL
GASTEIGER

@<TRIPOS>ATOM
      1 C          62.8648   89.3129   11.9709 C.ar    1  UNL1        0.0577
      2 C          62.8346   90.3187   10.8584 C.ar    1  UNL1        0.0462
      3 C          63.7832   91.4806   10.8718 C.ar    1  UNL1        0.1602
      4 F          63.7529   92.4863    9.7594 F       1  UNL1       -0.2027
      5 C          64.7620   91.6367   11.9977 C.ar    1  UNL1        0.1534
      6 C          64.7923   90.6309   13.1101 C.ar    1  UNL1        0.0351
      7 C          63.8437   89.4691   13.0967 C.ar    1  UNL1        0.0722
      8 CL         63.8739   88.4633   14.2091 Cl      1  UNL1       -0.0809
      9 S          65.7106   92.7986   12.0110 S.O2    1  UNL1        0.0773
     10 O          66.1642   92.4442   10.6259 O.2     1  UNL1       -0.1498
     11 O          65.2570   93.1530   13.3962 O.2     1  UNL1       -0.1498
     12 N          66.6592   93.9605   12.0244 N.pl3   1  UNL1       -0.1925
     13 H          67.2689   94.0894   12.7865 H       1  UNL1        0.1758
     14 C          66.6789   94.9259   10.8765 C.ar    1  UNL1        0.1977
     15 N          67.7323   95.0085    9.8118 N.ar    1  UNL1       -0.1997
     16 C          67.3531   96.1118    8.8690 C.ar    1  UNL1        0.2082
     17 N          66.0652   96.7111    9.3510 N.ar    1  UNL1       -0.1840
     18 S          65.6485   95.9781   10.5916 S.2     1  UNL1        0.0508
     19 N          61.9162   88.1510   11.9576 N.pl3   1  UNL1       -0.3319
     20 H          62.0130   87.4289   12.6197 H       1  UNL1        0.1468
     21 C          60.8203   88.0893   10.9354 C.3     1  UNL1        0.0870
     22 N          61.3688   84.4958    6.1619 N.3     1  UNL1       -0.3222
     23 C          61.2317   85.3942    7.3553 C.3     1  UNL1        0.0508
     24 C          59.9339   86.0987    7.6185 C.3     1  UNL1        0.0155
     25 C          59.7967   86.9971    8.8118 C.3     1  UNL1        0.0031
     26 C          60.9574   87.1909    9.7420 C.3     1  UNL1        0.0196
     27 C          62.2552   86.4864    9.4788 C.3     1  UNL1        0.0031
     28 C          62.3923   85.5880    8.2854 C.3     1  UNL1        0.0155
     29 H          60.4899   84.4812    5.6445 H       1  UNL1        0.1188
     30 H          61.5966   83.5511    6.4719 H       1  UNL1        0.1188
@<TRIPOS>BOND
     1    23    22    1
     2    23    24    1
     3    24    25    1
     4    25    26    1
     5    26    21    1
     6    21    19    1
     7    19     1    1
     8     1     2   ar
     9     2     3   ar
    10     3     4    1
    11     3     5   ar
    12     5     9    1
    13     9    10    2
    14     9    11    2
    15     9    12    1
    16    12    14    1
    17    14    15   ar
    18    15    16   ar
    19    16    17   ar
    20    17    18   ar
    21     5     6   ar
    22     6     7   ar
    23     7     8    1
    24    26    27    1
    25    27    28    1
    26    28    23    1
    27     7     1   ar
    28    18    14   ar
    29    22    29    1
    30    22    30    1
    31    19    20    1
    32    12    13    1
@<TRIPOS>MOLECULE
*****
 30 32 0 0 0
SMALL
GASTEIGER

@<TRIPOS>ATOM
      1 C          62.7830   89.4680   12.0491 C.ar    1  UNL1        0.0577
      2 C          62.7703   90.4475   10.9130 C.ar    1  UNL1        0.0462
      3 C          63.7742   91.5612   10.8718 C.ar    1  UNL1        0.1602
      4 F          63.7615   92.5407    9.7358 F       1  UNL1       -0.2027
      5 C          64.7909   91.6954   11.9666 C.ar    1  UNL1        0.1534
      6 C          64.8035   90.7159   13.1025 C.ar    1  UNL1        0.0351
      7 C          63.7996   89.6022   13.1438 C.ar    1  UNL1        0.0722
      8 CL         63.8123   88.6227   14.2797 Cl      1  UNL1       -0.0809
      9 S          65.7948   92.8091   11.9253 S.O2    1  UNL1        0.0773
     10 O          65.3953   93.2207   13.3113 O.2     1  UNL1       -0.1498
     11 O          66.1944   92.3976   10.5393 O.2     1  UNL1       -0.1498
     12 N          66.7988   93.9229   11.8841 N.pl3   1  UNL1       -0.1925
     13 H          67.4654   94.0115   12.6031 H       1  UNL1        0.1758
     14 C          66.7870   94.9015   10.7473 C.ar    1  UNL1        0.1977
     15 N          67.7943   94.9769    9.6383 N.ar    1  UNL1       -0.1997
     16 C          67.3957   96.0985    8.7256 C.ar    1  UNL1        0.2082
     17 N          66.1421   96.7163    9.2704 N.ar    1  UNL1       -0.1840
     18 S          65.7659   95.9765   10.5199 S.2     1  UNL1        0.0508
     19 N          61.7790   88.3542   12.0903 N.pl3   1  UNL1       -0.3319
     20 H          61.2776   88.1739   12.9182 H       1  UNL1        0.1468
     21 C          61.5390   87.5153   10.8703 C.3     1  UNL1        0.0870
     22 N          64.4098   82.2880   10.2114 N.3     1  UNL1       -0.3222
     23 C          63.6921   83.5949   10.3761 C.3     1  UNL1        0.0508
     24 C          63.3540   84.4219    9.1713 C.3     1  UNL1        0.0155
     25 C          62.6363   85.7288    9.3360 C.3     1  UNL1        0.0031
     26 C          62.2567   86.2085   10.7055 C.3     1  UNL1        0.0196
     27 C          62.5947   85.3814   11.9104 C.3     1  UNL1        0.0031
     28 C          63.3124   84.0746   11.7456 C.3     1  UNL1        0.0155
     29 H          64.5878   82.1204    9.2211 H       1  UNL1        0.1188
     30 H          63.8335   81.5342   10.5856 H       1  UNL1        0.1188
@<TRIPOS>BOND
     1    23    22    1
     2    23    24    1
     3    24    25    1
     4    25    26    1
     5    26    21    1
     6    21    19    1
     7    19     1    1
     8     1     2   ar
     9     2     3   ar
    10     3     4    1
    11     3     5   ar
    12     5     9    1
    13     9    10    2
    14     9    11    2
    15     9    12    1
    16    12    14    1
    17    14    15   ar
    18    15    16   ar
    19    16    17   ar
    20    17    18   ar
    21     5     6   ar
    22     6     7   ar
    23     7     8    1
    24    26    27    1
    25    27    28    1
    26    28    23    1
    27     7     1   ar
    28    18    14   ar
    29    22    29    1
    30    22    30    1
    31    19    20    1
    32    12    13    1
@<TRIPOS>MOLECULE
*****
 30 32 0 0 0
SMALL
GASTEIGER

@<TRIPOS>ATOM
      1 C          62.8705   89.4401   12.0103 C.ar    1  UNL1        0.0577
      2 C          62.8446   90.4333   10.8865 C.ar    1  UNL1        0.0462
      3 C          63.8265   91.5670   10.8648 C.ar    1  UNL1        0.1602
      4 F          63.8007   92.5602    9.7411 F       1  UNL1       -0.2027
      5 C          64.8344   91.7075   11.9669 C.ar    1  UNL1        0.1534
      6 C          64.8603   90.7142   13.0906 C.ar    1  UNL1        0.0351
      7 C          63.8784   89.5805   13.1124 C.ar    1  UNL1        0.0722
      8 CL         63.9042   88.5873   14.2361 Cl      1  UNL1       -0.0809
      9 S          65.8164   92.8412   11.9452 S.O2    1  UNL1        0.0773
     10 O          66.2712   92.4211   10.5789 O.2     1  UNL1       -0.1498
     11 O          65.3616   93.2613   13.3115 O.2     1  UNL1       -0.1498
     12 N          66.7983   93.9749   11.9235 N.pl3   1  UNL1       -0.1925
     13 H          67.4743   94.0544   12.6349 H       1  UNL1        0.1758
     14 C          66.7504   94.9875   10.8179 C.ar    1  UNL1        0.1977
     15 N          67.7555   95.1363    9.7144 N.ar    1  UNL1       -0.1997
     16 C          67.3154   96.2698    8.8361 C.ar    1  UNL1        0.2082
     17 N          66.0382   96.8216    9.3969 N.ar    1  UNL1       -0.1840
     18 S          65.6891   96.0291   10.6216 S.2     1  UNL1        0.0508
     19 N          61.8886   88.3063   12.0321 N.pl3   1  UNL1       -0.3319
     20 H          61.9588   87.6075   12.7219 H       1  UNL1        0.1468
     21 C          60.7996   88.2375   11.0028 C.3     1  UNL1        0.0870
     22 N          61.3627   84.5801    6.2798 N.3     1  UNL1       -0.3222
     23 C          61.2220   85.4944    7.4606 C.3     1  UNL1        0.0508
     24 C          62.3715   85.6811    8.4059 C.3     1  UNL1        0.0155
     25 C          62.2307   86.5954    9.5866 C.3     1  UNL1        0.0031
     26 C          60.9404   87.3231    9.8220 C.3     1  UNL1        0.0196
     27 C          59.7909   87.1365    8.8767 C.3     1  UNL1        0.0031
     28 C          59.9316   86.2221    7.6960 C.3     1  UNL1        0.0155
     29 H          62.2978   84.1726    6.2749 H       1  UNL1        0.1188
     30 H          61.2183   85.1100    5.4203 H       1  UNL1        0.1188
@<TRIPOS>BOND
     1    23    22    1
     2    23    24    1
     3    24    25    1
     4    25    26    1
     5    26    21    1
     6    21    19    1
     7    19     1    1
     8     1     2   ar
     9     2     3   ar
    10     3     4    1
    11     3     5   ar
    12     5     9    1
    13     9    10    2
    14     9    11    2
    15     9    12    1
    16    12    14    1
    17    14    15   ar
    18    15    16   ar
    19    16    17   ar
    20    17    18   ar
    21     5     6   ar
    22     6     7   ar
    23     7     8    1
    24    26    27    1
    25    27    28    1
    26    28    23    1
    27     7     1   ar
    28    18    14   ar
    29    22    29    1
    30    22    30    1
    31    19    20    1
    32    12    13    1
@<TRIPOS>MOLECULE
*****
 30 32 0 0 0
SMALL
GASTEIGER

@<TRIPOS>ATOM
      1 C          63.6886   90.5891   14.3702 C.ar    1  UNL1        0.0577
      2 C          64.8955   91.2489   14.9687 C.ar    1  UNL1        0.0462
      3 C          65.7855   92.1016   14.1137 C.ar    1  UNL1        0.1602
      4 F          66.9923   92.7614   14.7121 F       1  UNL1       -0.2027
      5 C          65.4685   92.2944   12.6603 C.ar    1  UNL1        0.1534
      6 C          64.2616   91.6346   12.0619 C.ar    1  UNL1        0.0351
      7 C          63.3717   90.7820   12.9169 C.ar    1  UNL1        0.0722
      8 CL         62.1648   90.1222   12.3185 Cl      1  UNL1       -0.0809
      9 S          66.3584   93.1471   11.8053 S.O2    1  UNL1        0.0773
     10 O          66.1711   92.1953   10.6611 O.2     1  UNL1       -0.1498
     11 O          66.5458   94.0988   12.9495 O.2     1  UNL1       -0.1498
     12 N          67.2484   93.9997   10.9503 N.pl3   1  UNL1       -0.1925
     13 H          68.2207   93.8454   10.9448 H       1  UNL1        0.1758
     14 C          66.6568   95.0876   10.1037 C.ar    1  UNL1        0.1977
     15 N          65.4197   95.8754   10.4182 N.ar    1  UNL1       -0.1997
     16 C          65.1968   96.8533    9.3029 C.ar    1  UNL1        0.2082
     17 N          66.2962   96.6699    8.2990 N.ar    1  UNL1       -0.1840
     18 S          67.1985   95.5786    8.7939 S.2     1  UNL1        0.0508
     19 N          62.7987   89.7364   15.2252 N.pl3   1  UNL1       -0.3319
     20 H          61.8220   89.7700   15.1057 H       1  UNL1        0.1468
     21 C          63.3968   88.8326   16.2622 C.3     1  UNL1        0.0870
     22 N          63.9558   82.9610   15.1618 N.3     1  UNL1       -0.3222
     23 C          63.8160   84.4289   15.4369 C.3     1  UNL1        0.0508
     24 C          64.5518   85.4241   14.5896 C.3     1  UNL1        0.0155
     25 C          64.4120   86.8920   14.8647 C.3     1  UNL1        0.0031
     26 C          63.5365   87.3647   15.9871 C.3     1  UNL1        0.0196
     27 C          62.8007   86.3695   16.8345 C.3     1  UNL1        0.0031
     28 C          62.9405   84.9016   16.5594 C.3     1  UNL1        0.0155
     29 H          64.5839   82.8217   14.3704 H       1  UNL1        0.1188
     30 H          63.0406   82.5674   14.9430 H       1  UNL1        0.1188
@<TRIPOS>BOND
     1    23    22    1
     2    23    24    1
     3    24    25    1
     4    25    26    1
     5    26    21    1
     6    21    19    1
     7    19     1    1
     8     1     2   ar
     9     2     3   ar
    10     3     4    1
    11     3     5   ar
    12     5     9    1
    13     9    10    2
    14     9    11    2
    15     9    12    1
    16    12    14    1
    17    14    15   ar
    18    15    16   ar
    19    16    17   ar
    20    17    18   ar
    21     5     6   ar
    22     6     7   ar
    23     7     8    1
    24    26    27    1
    25    27    28    1
    26    28    23    1
    27     7     1   ar
    28    18    14   ar
    29    22    29    1
    30    22    30    1
    31    19    20    1
    32    12    13    1
@<TRIPOS>MOLECULE
*****
 30 32 0 0 0
SMALL
GASTEIGER

@<TRIPOS>ATOM
      1 C          63.3186   88.6650   12.4522 C.ar    1  UNL1        0.0577
      2 C          63.9858   88.4397   13.7767 C.ar    1  UNL1        0.0462
      3 C          64.1050   87.0505   14.3297 C.ar    1  UNL1        0.1602
      4 F          64.7721   86.8251   15.6541 F       1  UNL1       -0.2027
      5 C          63.5570   85.8866   13.5582 C.ar    1  UNL1        0.1534
      6 C          62.8899   86.1119   12.2338 C.ar    1  UNL1        0.0351
      7 C          62.7707   87.5012   11.6808 C.ar    1  UNL1        0.0722
      8 CL         62.1036   87.7265   10.3564 Cl      1  UNL1       -0.0809
      9 S          63.6763   84.4973   14.1112 S.O2    1  UNL1        0.0773
     10 O          62.2114   84.5001   14.4339 O.2     1  UNL1       -0.1498
     11 O          65.1411   84.4946   13.7885 O.2     1  UNL1       -0.1498
     12 N          63.7955   83.1081   14.6642 N.pl3   1  UNL1       -0.1925
     13 H          64.2224   82.9615   15.5391 H       1  UNL1        0.1758
     14 C          63.2642   81.9422   13.8841 C.ar    1  UNL1        0.1977
     15 N          62.4035   80.8387   14.4241 N.ar    1  UNL1       -0.1997
     16 C          62.1077   79.8896   13.3008 C.ar    1  UNL1        0.2082
     17 N          62.7857   80.4065   12.0666 N.ar    1  UNL1       -0.1840
     18 S          63.5005   81.6750   12.4271 S.2     1  UNL1        0.0508
     19 N          63.1994   90.0543   11.8992 N.pl3   1  UNL1       -0.3319
     20 H          62.9111   90.1902   10.9677 H       1  UNL1        0.1468
     21 C          63.5194   91.2363   12.7654 C.3     1  UNL1        0.0870
     22 N          69.2175   92.4482   14.2016 N.3     1  UNL1       -0.3222
     23 C          67.7930   92.1452   13.8426 C.3     1  UNL1        0.0508
     24 C          67.2888   92.4399   12.4609 C.3     1  UNL1        0.0155
     25 C          65.8643   92.1369   12.1019 C.3     1  UNL1        0.0031
     26 C          64.9439   91.5393   13.1244 C.3     1  UNL1        0.0196
     27 C          65.4481   91.2446   14.5061 C.3     1  UNL1        0.0031
     28 C          66.8726   91.5476   14.8651 C.3     1  UNL1        0.0155
     29 H          69.6945   92.8472   13.3931 H       1  UNL1        0.1188
     30 H          69.6875   91.5879   14.4833 H       1  UNL1        0.1188
@<TRIPOS>BOND
     1    23    22    1
     2    23    24    1
     3    24    25    1
     4    25    26    1
     5    26    21    1
     6    21    19    1
     7    19     1    1
     8     1     2   ar
     9     2     3   ar
    10     3     4    1
    11     3     5   ar
    12     5     9    1
    13     9    10    2
    14     9    11    2
    15     9    12    1
    16    12    14    1
    17    14    15   ar
    18    15    16   ar
    19    16    17   ar
    20    17    18   ar
    21     5     6   ar
    22     6     7   ar
    23     7     8    1
    24    26    27    1
    25    27    28    1
    26    28    23    1
    27     7     1   ar
    28    18    14   ar
    29    22    29    1
    30    22    30    1
    31    19    20    1
    32    12    13    1
@<TRIPOS>MOLECULE
*****
 30 32 0 0 0
SMALL
GASTEIGER

@<TRIPOS>ATOM
      1 C          62.3805   89.0357   11.6107 C.ar    1  UNL1        0.0577
      2 C          63.3667   89.1155   12.7382 C.ar    1  UNL1        0.0462
      3 C          64.3051   90.2819   12.8327 C.ar    1  UNL1        0.1602
      4 F          65.2913   90.3617   13.9601 F       1  UNL1       -0.2027
      5 C          64.2573   91.3685   11.7997 C.ar    1  UNL1        0.1534
      6 C          63.2712   91.2887   10.6723 C.ar    1  UNL1        0.0351
      7 C          62.3328   90.1223   10.5778 C.ar    1  UNL1        0.0722
      8 CL         61.3466   90.0425    9.4504 Cl      1  UNL1       -0.0809
      9 S          65.1957   92.5349   11.8941 S.O2    1  UNL1        0.0773
     10 O          64.8994   92.6546   13.3597 O.2     1  UNL1       -0.1498
     11 O          65.4921   92.4151   10.4286 O.2     1  UNL1       -0.1498
     12 N          66.1341   93.7013   11.9886 N.pl3   1  UNL1       -0.1925
     13 H          66.6496   93.8528   12.8135 H       1  UNL1        0.1758
     14 C          66.2871   94.6369   10.8261 C.ar    1  UNL1        0.1977
     15 N          65.3575   95.7586   10.4689 N.ar    1  UNL1       -0.1997
     16 C          65.8923   96.4300    9.2388 C.ar    1  UNL1        0.2082
     17 N          67.1525   95.7231    8.8357 N.ar    1  UNL1       -0.1840
     18 S          67.3964   94.6149    9.8167 S.2     1  UNL1        0.0508
     19 N          61.4421   87.8693   11.5163 N.pl3   1  UNL1       -0.3319
     20 H          60.4818   87.9945   11.6936 H       1  UNL1        0.1468
     21 C          61.9668   86.5122   11.1516 C.3     1  UNL1        0.0870
     22 N          61.4018   84.4879    5.5317 N.3     1  UNL1       -0.3222
     23 C          61.5430   84.9940    6.9367 C.3     1  UNL1        0.0508
     24 C          62.7948   84.7114    7.7134 C.3     1  UNL1        0.0155
     25 C          62.9360   85.2175    9.1184 C.3     1  UNL1        0.0031
     26 C          61.8255   86.0061    9.7467 C.3     1  UNL1        0.0196
     27 C          60.5738   86.2887    8.9700 C.3     1  UNL1        0.0031
     28 C          60.4326   85.7826    7.5650 C.3     1  UNL1        0.0155
     29 H          62.2442   83.9767    5.2682 H       1  UNL1        0.1188
     30 H          61.2703   85.2763    4.8980 H       1  UNL1        0.1188
@<TRIPOS>BOND
     1    23    22    1
     2    23    24    1
     3    24    25    1
     4    25    26    1
     5    26    21    1
     6    21    19    1
     7    19     1    1
     8     1     2   ar
     9     2     3   ar
    10     3     4    1
    11     3     5   ar
    12     5     9    1
    13     9    10    2
    14     9    11    2
    15     9    12    1
    16    12    14    1
    17    14    15   ar
    18    15    16   ar
    19    16    17   ar
    20    17    18   ar
    21     5     6   ar
    22     6     7   ar
    23     7     8    1
    24    26    27    1
    25    27    28    1
    26    28    23    1
    27     7     1   ar
    28    18    14   ar
    29    22    29    1
    30    22    30    1
    31    19    20    1
    32    12    13    1
