@<TRIPOS>MOLECULE
*****
 40 44 0 0 0
SMALL
GASTEIGER

@<TRIPOS>ATOM
      1 C          62.9623   84.4721   15.2448 C.2     1  UNL1        0.2535
      2 O          62.7803   84.2041   16.7095 O.2     1  UNL1       -0.2695
      3 N          63.1648   85.8766   14.7588 N.am    1  UNL1       -0.2550
      4 C          63.3366   86.0341   13.2770 C.3     1  UNL1        0.1045
      5 C          63.5548   87.2919   12.4894 C.3     1  UNL1        0.0929
      6 C          63.6551   88.7028   12.9888 C.3     1  UNL1        0.2845
      7 F          63.8269   88.8602   11.5071 F       1  UNL1       -0.1995
      8 F          63.8318   90.1837   12.8289 F       1  UNL1       -0.1995
      9 C          63.5619   89.2042   14.3995 C.2     1  UNL1        0.0435
     10 C          63.7039   90.6873   14.5736 C.2     1  UNL1        0.0587
     11 C          63.3454   88.4188   15.6590 C.ar    1  UNL1        0.0149
     12 C          63.3160   89.3121   16.8636 C.ar    1  UNL1        0.0011
     13 C          63.1099   88.7244   18.2282 C.ar    1  UNL1        0.0001
     14 C          62.9332   87.2434   18.3881 C.ar    1  UNL1        0.0013
     15 C          62.9626   86.3502   17.1835 C.ar    1  UNL1        0.0149
     16 C          63.1687   86.9379   15.8189 C.ar    1  UNL1        0.0539
     17 C          62.9006   81.0622   12.3091 C.ar    1  UNL1        0.0837
     18 C          61.6838   81.3654   13.1321 C.ar    1  UNL1        0.0193
     19 C          61.7044   82.5020   14.1106 C.ar    1  UNL1        0.0069
     20 C          62.9417   83.3354   14.2662 C.ar    1  UNL1        0.0645
     21 C          64.1586   83.0322   13.4432 C.ar    1  UNL1        0.0635
     22 CL         65.3960   83.8657   13.5988 Cl      1  UNL1       -0.0820
     23 C          64.1380   81.8956   12.4646 C.ar    1  UNL1        0.0307
     24 C          62.8295   76.1923   10.2694 C.3     1  UNL1        0.0540
     25 C          62.8474   77.6871   10.3928 C.ar    1  UNL1        0.0809
     26 C          62.8495   78.6658    9.2561 C.ar    1  UNL1        0.0371
     27 C          62.8697   80.0492    9.8356 C.ar    1  UNL1        0.1016
     28 N          62.8801   79.9255   11.3304 N.ar    1  UNL1       -0.2285
     29 N          62.8663   78.4657   11.6749 N.ar    1  UNL1       -0.1694
     30 C          63.9237   91.5653   13.3774 C.2     1  UNL1        0.2461
     31 O          62.8913   91.6250   12.2910 O.2     1  UNL1       -0.2701
     32 N          65.1761   92.3836   13.2677 N.am    1  UNL1       -0.2956
     33 H          65.8537   92.3445   13.9808 H       1  UNL1        0.1501
     34 C          65.3958   93.2616   12.0716 C.3     1  UNL1        0.1379
     35 C          66.5859   93.0385   11.1861 C.ar    1  UNL1        0.1004
     36 C          66.6989   93.7723    9.8827 C.ar    1  UNL1        0.0199
     37 C          67.8890   93.5492    8.9972 C.ar    1  UNL1        0.0238
     38 C          68.9660   92.5925    9.4152 C.ar    1  UNL1        0.1222
     39 N          68.8530   91.8588   10.7185 N.ar    1  UNL1       -0.1467
     40 N          67.6630   92.0818   11.6040 N.ar    1  UNL1       -0.1506
@<TRIPOS>BOND
     1    24    25    1
     2    25    26   ar
     3    26    27   ar
     4    27    28   ar
     5    28    17    1
     6    17    18   ar
     7    18    19   ar
     8    19    20   ar
     9    20     1    1
    10     1     2    2
    11     1     3   am
    12     3     4    1
    13     4     5    1
    14     5     6    1
    15     6     7    1
    16     6     8    1
    17     6     9    1
    18     9    10    2
    19    10    30    1
    20    30    31    2
    21    30    32   am
    22    32    34    1
    23    34    35    1
    24    35    36   ar
    25    36    37   ar
    26    37    38   ar
    27    38    39   ar
    28    39    40   ar
    29     9    11    1
    30    11    12   ar
    31    12    13   ar
    32    13    14   ar
    33    14    15   ar
    34    15    16   ar
    35    20    21   ar
    36    21    22    1
    37    21    23   ar
    38    28    29   ar
    39    29    25   ar
    40    23    17   ar
    41    16     3    1
    42    40    35   ar
    43    16    11   ar
    44    32    33    1
@<TRIPOS>MOLECULE
*****
 40 44 0 0 0
SMALL
GASTEIGER

@<TRIPOS>ATOM
      1 C          62.5558   85.2612   12.7399 C.2     1  UNL1        0.2535
      2 O          62.2018   84.1108   13.6351 O.2     1  UNL1       -0.2695
      3 N          62.9656   86.5759   13.3345 N.am    1  UNL1       -0.2550
      4 C          63.2985   87.6592   12.3518 C.3     1  UNL1        0.1045
      5 C          63.7364   89.0676   12.6252 C.3     1  UNL1        0.0929
      6 C          63.9494   89.7406   13.9488 C.3     1  UNL1        0.2845
      7 F          64.2823   90.8238   12.9660 F       1  UNL1       -0.1995
      8 F          64.3106   90.8956   14.8350 F       1  UNL1       -0.1995
      9 C          63.7773   89.1713   15.3258 C.2     1  UNL1        0.0435
     10 C          64.0718   90.1088   16.4591 C.2     1  UNL1        0.0587
     11 C          63.3495   87.7885   15.7195 C.ar    1  UNL1        0.0149
     12 C          63.3058   87.6321   17.2106 C.ar    1  UNL1        0.0011
     13 C          62.9009   86.3206   17.8156 C.ar    1  UNL1        0.0001
     14 C          62.5397   85.1655   16.9294 C.ar    1  UNL1        0.0013
     15 C          62.5834   85.3219   15.4382 C.ar    1  UNL1        0.0149
     16 C          62.9883   86.6334   14.8333 C.ar    1  UNL1        0.0539
     17 C          62.3884   84.7681    8.2701 C.ar    1  UNL1        0.0837
     18 C          61.4513   85.7179    8.9555 C.ar    1  UNL1        0.0193
     19 C          61.5071   85.8822   10.4454 C.ar    1  UNL1        0.0069
     20 C          62.5000   85.0969   11.2499 C.ar    1  UNL1        0.0645
     21 C          63.4371   84.1471   10.5645 C.ar    1  UNL1        0.0635
     22 CL         64.4300   83.3616   11.3691 Cl      1  UNL1       -0.0820
     23 C          63.3812   83.9827    9.0746 C.ar    1  UNL1        0.0307
     24 C          60.6177   83.8389    3.3832 C.3     1  UNL1        0.0540
     25 C          61.5187   84.1766    4.5338 C.ar    1  UNL1        0.0809
     26 C          62.9747   84.5250    4.4409 C.ar    1  UNL1        0.0371
     27 C          63.4777   84.7890    5.8292 C.ar    1  UNL1        0.1016
     28 N          62.3326   84.6037    6.7801 N.ar    1  UNL1       -0.2285
     29 N          61.1219   84.2253    5.9796 N.ar    1  UNL1       -0.1694
     30 C          64.5074   91.5157   16.1747 C.2     1  UNL1        0.2461
     31 O          63.7590   92.6684   16.7756 O.2     1  UNL1       -0.2701
     32 N          65.6913   91.7699   15.2894 N.am    1  UNL1       -0.2956
     33 H          66.1825   91.0133   14.8950 H       1  UNL1        0.1501
     34 C          66.1268   93.1768   15.0051 C.3     1  UNL1        0.1379
     35 C          66.3243   93.6290   13.5886 C.ar    1  UNL1        0.1004
     36 C          66.6848   92.6328   12.5266 C.ar    1  UNL1        0.0199
     37 C          66.8822   93.0849   11.1101 C.ar    1  UNL1        0.0238
     38 C          66.7193   94.5333   10.7555 C.ar    1  UNL1        0.1222
     39 N          66.3588   95.5294   11.8173 N.ar    1  UNL1       -0.1467
     40 N          66.1613   95.0774   13.2339 N.ar    1  UNL1       -0.1506
@<TRIPOS>BOND
     1    24    25    1
     2    25    26   ar
     3    26    27   ar
     4    27    28   ar
     5    28    17    1
     6    17    18   ar
     7    18    19   ar
     8    19    20   ar
     9    20     1    1
    10     1     2    2
    11     1     3   am
    12     3     4    1
    13     4     5    1
    14     5     6    1
    15     6     7    1
    16     6     8    1
    17     6     9    1
    18     9    10    2
    19    10    30    1
    20    30    31    2
    21    30    32   am
    22    32    34    1
    23    34    35    1
    24    35    36   ar
    25    36    37   ar
    26    37    38   ar
    27    38    39   ar
    28    39    40   ar
    29     9    11    1
    30    11    12   ar
    31    12    13   ar
    32    13    14   ar
    33    14    15   ar
    34    15    16   ar
    35    20    21   ar
    36    21    22    1
    37    21    23   ar
    38    28    29   ar
    39    29    25   ar
    40    23    17   ar
    41    16     3    1
    42    40    35   ar
    43    16    11   ar
    44    32    33    1
@<TRIPOS>MOLECULE
*****
 40 44 0 0 0
SMALL
GASTEIGER

@<TRIPOS>ATOM
      1 C          63.0765   84.8458   11.7297 C.2     1  UNL1        0.2535
      2 O          63.7188   85.3737   12.9783 O.2     1  UNL1       -0.2695
      3 N          62.3658   85.7824   10.7982 N.am    1  UNL1       -0.2550
      4 C          61.7590   85.1523    9.5797 C.3     1  UNL1        0.1045
      5 C          60.9924   85.8095    8.4705 C.3     1  UNL1        0.0929
      6 C          60.6432   87.2590    8.3057 C.3     1  UNL1        0.2845
      7 F          60.0364   86.6289    7.0872 F       1  UNL1       -0.1995
      8 F          60.0241   88.4281    7.5987 F       1  UNL1       -0.1995
      9 C          60.9746   88.4093    9.2096 C.2     1  UNL1        0.0435
     10 C          60.4780   89.7523    8.7626 C.2     1  UNL1        0.0587
     11 C          61.7368   88.3943   10.5015 C.ar    1  UNL1        0.0149
     12 C          61.8439   89.7696   11.0906 C.ar    1  UNL1        0.0011
     13 C          62.5701   89.9757   12.3867 C.ar    1  UNL1        0.0001
     14 C          63.1893   88.8066   13.0937 C.ar    1  UNL1        0.0013
     15 C          63.0822   87.4314   12.5046 C.ar    1  UNL1        0.0149
     16 C          62.3560   87.2252   11.2085 C.ar    1  UNL1        0.0539
     17 C          63.2818   80.4523   10.7786 C.ar    1  UNL1        0.0837
     18 C          63.8422   81.4554    9.8143 C.ar    1  UNL1        0.0193
     19 C          63.7737   82.9198   10.1314 C.ar    1  UNL1        0.0069
     20 C          63.1450   83.3812   11.4127 C.ar    1  UNL1        0.0645
     21 C          62.5846   82.3781   12.3769 C.ar    1  UNL1        0.0635
     22 CL         61.9558   82.8396   13.6582 Cl      1  UNL1       -0.0820
     23 C          62.6531   80.9137   12.0598 C.ar    1  UNL1        0.0307
     24 C          64.6625   75.8450    8.5998 C.3     1  UNL1        0.0540
     25 C          63.9849   76.8699    9.4601 C.ar    1  UNL1        0.0809
     26 C          62.9262   76.5981   10.4874 C.ar    1  UNL1        0.0371
     27 C          62.5340   77.9070   11.1063 C.ar    1  UNL1        0.1016
     28 N          63.3503   78.9877   10.4616 N.ar    1  UNL1       -0.2285
     29 N          64.2469   78.3468    9.4442 N.ar    1  UNL1       -0.1694
     30 C          59.7041   89.8782    7.4838 C.2     1  UNL1        0.2461
     31 O          58.4948   89.0217    7.2515 O.2     1  UNL1       -0.2701
     32 N          60.1397   90.8605    6.4372 N.am    1  UNL1       -0.2956
     33 H          60.9334   91.4227    6.5896 H       1  UNL1        0.1501
     34 C          59.3658   90.9864    5.1584 C.3     1  UNL1        0.1379
     35 C          59.9269   91.7822    4.0175 C.ar    1  UNL1        0.1004
     36 C          61.3890   91.6991    3.6926 C.ar    1  UNL1        0.0199
     37 C          61.9501   92.4950    2.5516 C.ar    1  UNL1        0.0238
     38 C          61.0492   93.3739    1.7355 C.ar    1  UNL1        0.1222
     39 N          59.5873   93.4569    2.0604 N.ar    1  UNL1       -0.1467
     40 N          59.0260   92.6611    3.2013 N.ar    1  UNL1       -0.1506
@<TRIPOS>BOND
     1    24    25    1
     2    25    26   ar
     3    26    27   ar
     4    27    28   ar
     5    28    17    1
     6    17    18   ar
     7    18    19   ar
     8    19    20   ar
     9    20     1    1
    10     1     2    2
    11     1     3   am
    12     3     4    1
    13     4     5    1
    14     5     6    1
    15     6     7    1
    16     6     8    1
    17     6     9    1
    18     9    10    2
    19    10    30    1
    20    30    31    2
    21    30    32   am
    22    32    34    1
    23    34    35    1
    24    35    36   ar
    25    36    37   ar
    26    37    38   ar
    27    38    39   ar
    28    39    40   ar
    29     9    11    1
    30    11    12   ar
    31    12    13   ar
    32    13    14   ar
    33    14    15   ar
    34    15    16   ar
    35    20    21   ar
    36    21    22    1
    37    21    23   ar
    38    28    29   ar
    39    29    25   ar
    40    23    17   ar
    41    16     3    1
    42    40    35   ar
    43    16    11   ar
    44    32    33    1
@<TRIPOS>MOLECULE
*****
 40 44 0 0 0
SMALL
GASTEIGER

@<TRIPOS>ATOM
      1 C          61.1449   87.2327    9.8129 C.2     1  UNL1        0.2535
      2 O          60.9136   85.7507    9.8291 O.2     1  UNL1       -0.2695
      3 N          61.9705   87.8748   10.8881 N.am    1  UNL1       -0.2550
      4 C          62.1399   89.3612   10.7783 C.3     1  UNL1        0.1045
      5 C          62.8982   90.2854   11.6842 C.3     1  UNL1        0.0929
      6 C          63.6744   89.9517   12.9237 C.3     1  UNL1        0.2845
      7 F          63.8437   91.4380   12.8139 F       1  UNL1       -0.1995
      8 F          64.5260   90.2794   14.1142 F       1  UNL1       -0.1995
      9 C          63.8840   88.6111   13.5632 C.2     1  UNL1        0.0435
     10 C          64.7188   88.6080   14.8094 C.2     1  UNL1        0.0587
     11 C          63.3692   87.2733   13.1213 C.ar    1  UNL1        0.0149
     12 C          63.8129   86.1816   14.0494 C.ar    1  UNL1        0.0011
     13 C          63.4050   84.7622   13.7869 C.ar    1  UNL1        0.0001
     14 C          62.5534   84.4345   12.5964 C.ar    1  UNL1        0.0013
     15 C          62.1097   85.5262   11.6683 C.ar    1  UNL1        0.0149
     16 C          62.5176   86.9456   11.9308 C.ar    1  UNL1        0.0539
     17 C          59.3618   89.7523    6.5384 C.ar    1  UNL1        0.0837
     18 C          60.0020   90.4087    7.7256 C.ar    1  UNL1        0.0193
     19 C          60.5964   89.5688    8.8170 C.ar    1  UNL1        0.0069
     20 C          60.5505   88.0726    8.7214 C.ar    1  UNL1        0.0645
     21 C          59.9103   87.4162    7.5342 C.ar    1  UNL1        0.0635
     22 CL         59.8645   85.9199    7.4386 Cl      1  UNL1       -0.0820
     23 C          59.3159   88.2561    6.4428 C.ar    1  UNL1        0.0307
     24 C          58.8644   92.8453    2.2879 C.3     1  UNL1        0.0540
     25 C          58.5387   92.0139    3.4932 C.ar    1  UNL1        0.0809
     26 C          57.1667   91.7554    4.0415 C.ar    1  UNL1        0.0371
     27 C          57.3080   90.8767    5.2490 C.ar    1  UNL1        0.1016
     28 N          58.7674   90.5922    5.4469 N.ar    1  UNL1       -0.2285
     29 N          59.5280   91.2949    4.3618 N.ar    1  UNL1       -0.1694
     30 C          65.2829   89.8937   15.3375 C.2     1  UNL1        0.2461
     31 O          66.7285   90.2260   15.1146 O.2     1  UNL1       -0.2701
     32 N          64.4014   90.8470   16.0885 N.am    1  UNL1       -0.2956
     33 H          63.4525   90.6289   16.2348 H       1  UNL1        0.1501
     34 C          64.9655   92.1327   16.6166 C.3     1  UNL1        0.1379
     35 C          66.2596   92.6627   16.0739 C.ar    1  UNL1        0.1004
     36 C          67.5411   92.4124   16.8123 C.ar    1  UNL1        0.0199
     37 C          68.8352   92.9424   16.2696 C.ar    1  UNL1        0.0238
     38 C          68.8477   93.7227   14.9886 C.ar    1  UNL1        0.1222
     39 N          67.5663   93.9730   14.2503 N.ar    1  UNL1       -0.1467
     40 N          66.2722   93.4430   14.7929 N.ar    1  UNL1       -0.1506
@<TRIPOS>BOND
     1    24    25    1
     2    25    26   ar
     3    26    27   ar
     4    27    28   ar
     5    28    17    1
     6    17    18   ar
     7    18    19   ar
     8    19    20   ar
     9    20     1    1
    10     1     2    2
    11     1     3   am
    12     3     4    1
    13     4     5    1
    14     5     6    1
    15     6     7    1
    16     6     8    1
    17     6     9    1
    18     9    10    2
    19    10    30    1
    20    30    31    2
    21    30    32   am
    22    32    34    1
    23    34    35    1
    24    35    36   ar
    25    36    37   ar
    26    37    38   ar
    27    38    39   ar
    28    39    40   ar
    29     9    11    1
    30    11    12   ar
    31    12    13   ar
    32    13    14   ar
    33    14    15   ar
    34    15    16   ar
    35    20    21   ar
    36    21    22    1
    37    21    23   ar
    38    28    29   ar
    39    29    25   ar
    40    23    17   ar
    41    16     3    1
    42    40    35   ar
    43    16    11   ar
    44    32    33    1
@<TRIPOS>MOLECULE
*****
 40 44 0 0 0
SMALL
GASTEIGER

@<TRIPOS>ATOM
      1 C          60.3052   89.0974    7.0469 C.2     1  UNL1        0.2535
      2 O          59.6913   87.7384    6.8837 O.2     1  UNL1       -0.2695
      3 N          61.0673   89.4311    8.2951 N.am    1  UNL1       -0.2550
      4 C          61.6401   90.8160    8.3572 C.3     1  UNL1        0.1045
      5 C          62.4429   91.4476    9.4557 C.3     1  UNL1        0.0929
      6 C          62.8711   90.8504   10.7633 C.3     1  UNL1        0.2845
      7 F          63.4439   92.2353   10.8254 F       1  UNL1       -0.1995
      8 F          63.5542   90.8694   12.0986 F       1  UNL1       -0.1995
      9 C          62.6023   89.4739   11.2954 C.2     1  UNL1        0.0435
     10 C          63.1722   89.1774   12.6508 C.2     1  UNL1        0.0587
     11 C          61.8389   88.3548   10.6513 C.ar    1  UNL1        0.0149
     12 C          61.8066   87.1379   11.5277 C.ar    1  UNL1        0.0011
     13 C          61.0913   85.9019   11.0688 C.ar    1  UNL1        0.0001
     14 C          60.4081   85.8829    9.7336 C.ar    1  UNL1        0.0013
     15 C          60.4403   87.0998    8.8572 C.ar    1  UNL1        0.0149
     16 C          61.1557   88.3357    9.3161 C.ar    1  UNL1        0.0539
     17 C          59.8604   92.1729    3.7922 C.ar    1  UNL1        0.0837
     18 C          61.2214   91.6586    4.1572 C.ar    1  UNL1        0.0193
     19 C          61.3696   90.6335    5.2421 C.ar    1  UNL1        0.0069
     20 C          60.1569   90.1226    5.9620 C.ar    1  UNL1        0.0645
     21 C          58.7959   90.6368    5.5969 C.ar    1  UNL1        0.0635
     22 CL         57.5832   90.1259    6.3168 Cl      1  UNL1       -0.0820
     23 C          58.6478   91.6620    4.5120 C.ar    1  UNL1        0.0307
     24 C          60.0362   96.7304    1.1316 C.3     1  UNL1        0.0540
     25 C          59.7930   95.2929    1.4842 C.ar    1  UNL1        0.0809
     26 C          59.1751   94.2583    0.5911 C.ar    1  UNL1        0.0371
     27 C          59.1252   92.9636    1.3469 C.ar    1  UNL1        0.1016
     28 N          59.7122   93.1981    2.7072 N.ar    1  UNL1       -0.2285
     29 N          60.1249   94.6376    2.7921 N.ar    1  UNL1       -0.1694
     30 C          63.9533   90.2285   13.3824 C.2     1  UNL1        0.2461
     31 O          63.5532   90.6294   14.7712 O.2     1  UNL1       -0.2701
     32 N          65.1345   90.8786   12.7249 N.am    1  UNL1       -0.2956
     33 H          65.3971   90.6154   11.8133 H       1  UNL1        0.1501
     34 C          65.9155   91.9297   13.4565 C.3     1  UNL1        0.1379
     35 C          66.1005   93.2873   12.8461 C.ar    1  UNL1        0.1004
     36 C          66.1160   93.4431   11.3543 C.ar    1  UNL1        0.0199
     37 C          66.3010   94.8008   10.7439 C.ar    1  UNL1        0.0238
     38 C          66.4704   96.0026   11.6253 C.ar    1  UNL1        0.1222
     39 N          66.4549   95.8468   13.1170 N.ar    1  UNL1       -0.1467
     40 N          66.2699   94.4892   13.7275 N.ar    1  UNL1       -0.1506
@<TRIPOS>BOND
     1    24    25    1
     2    25    26   ar
     3    26    27   ar
     4    27    28   ar
     5    28    17    1
     6    17    18   ar
     7    18    19   ar
     8    19    20   ar
     9    20     1    1
    10     1     2    2
    11     1     3   am
    12     3     4    1
    13     4     5    1
    14     5     6    1
    15     6     7    1
    16     6     8    1
    17     6     9    1
    18     9    10    2
    19    10    30    1
    20    30    31    2
    21    30    32   am
    22    32    34    1
    23    34    35    1
    24    35    36   ar
    25    36    37   ar
    26    37    38   ar
    27    38    39   ar
    28    39    40   ar
    29     9    11    1
    30    11    12   ar
    31    12    13   ar
    32    13    14   ar
    33    14    15   ar
    34    15    16   ar
    35    20    21   ar
    36    21    22    1
    37    21    23   ar
    38    28    29   ar
    39    29    25   ar
    40    23    17   ar
    41    16     3    1
    42    40    35   ar
    43    16    11   ar
    44    32    33    1
@<TRIPOS>MOLECULE
*****
 40 44 0 0 0
SMALL
GASTEIGER

@<TRIPOS>ATOM
      1 C          61.2816   87.5729   10.2295 C.2     1  UNL1        0.2535
      2 O          61.1288   86.0950   10.4356 O.2     1  UNL1       -0.2695
      3 N          62.1738   88.3684   11.1357 N.am    1  UNL1       -0.2550
      4 C          62.2556   89.8372   10.8430 C.3     1  UNL1        0.1045
      5 C          63.0501   90.8902   11.5572 C.3     1  UNL1        0.0929
      6 C          63.9589   90.7345   12.7404 C.3     1  UNL1        0.2845
      7 F          64.0408   92.2033   12.4477 F       1  UNL1       -0.1995
      8 F          64.9041   91.2324   13.7934 F       1  UNL1       -0.1995
      9 C          64.2976   89.4871   13.5016 C.2     1  UNL1        0.0435
     10 C          65.2484   89.6626   14.6484 C.2     1  UNL1        0.0587
     11 C          63.8112   88.0876   13.2678 C.ar    1  UNL1        0.0149
     12 C          64.3979   87.1302   14.2623 C.ar    1  UNL1        0.0011
     13 C          64.0393   85.6748   14.2039 C.ar    1  UNL1        0.0001
     14 C          63.0941   85.1769   13.1510 C.ar    1  UNL1        0.0013
     15 C          62.5075   86.1343   12.1564 C.ar    1  UNL1        0.0149
     16 C          62.8660   87.5896   12.2148 C.ar    1  UNL1        0.0539
     17 C          59.0632   89.6204    6.8923 C.ar    1  UNL1        0.0837
     18 C          59.4788   90.3991    8.1051 C.ar    1  UNL1        0.0193
     19 C          60.2183   89.7166    9.2174 C.ar    1  UNL1        0.0069
     20 C          60.5421   88.2554    9.1170 C.ar    1  UNL1        0.0645
     21 C          60.1265   87.4767    7.9042 C.ar    1  UNL1        0.0635
     22 CL         60.4503   86.0155    7.8039 Cl      1  UNL1       -0.0820
     23 C          59.3870   88.1593    6.7919 C.ar    1  UNL1        0.0307
     24 C          58.0067   92.3626    2.5054 C.3     1  UNL1        0.0540
     25 C          57.8381   91.5634    3.7634 C.ar    1  UNL1        0.0809
     26 C          56.5335   91.1428    4.3727 C.ar    1  UNL1        0.0371
     27 C          56.8337   90.3638    5.6189 C.ar    1  UNL1        0.1016
     28 N          58.3237   90.3029    5.7798 N.ar    1  UNL1       -0.2285
     29 N          58.9445   91.0442    4.6332 N.ar    1  UNL1       -0.1694
     30 C          65.7948   91.0224   14.9684 C.2     1  UNL1        0.2461
     31 O          65.5629   91.6242   16.3227 O.2     1  UNL1       -0.2701
     32 N          66.5730   91.7805   13.9341 N.am    1  UNL1       -0.2956
     33 H          66.7251   91.3855   13.0452 H       1  UNL1        0.1501
     34 C          67.1193   93.1403   14.2541 C.3     1  UNL1        0.1379
     35 C          66.7977   94.3057   13.3663 C.ar    1  UNL1        0.1004
     36 C          66.5761   94.0915   11.8982 C.ar    1  UNL1        0.0199
     37 C          66.2544   95.2569   11.0104 C.ar    1  UNL1        0.0238
     38 C          66.1544   96.6366   11.5905 C.ar    1  UNL1        0.1222
     39 N          66.3759   96.8508   13.0584 N.ar    1  UNL1       -0.1467
     40 N          66.6976   95.6854   13.9464 N.ar    1  UNL1       -0.1506
@<TRIPOS>BOND
     1    24    25    1
     2    25    26   ar
     3    26    27   ar
     4    27    28   ar
     5    28    17    1
     6    17    18   ar
     7    18    19   ar
     8    19    20   ar
     9    20     1    1
    10     1     2    2
    11     1     3   am
    12     3     4    1
    13     4     5    1
    14     5     6    1
    15     6     7    1
    16     6     8    1
    17     6     9    1
    18     9    10    2
    19    10    30    1
    20    30    31    2
    21    30    32   am
    22    32    34    1
    23    34    35    1
    24    35    36   ar
    25    36    37   ar
    26    37    38   ar
    27    38    39   ar
    28    39    40   ar
    29     9    11    1
    30    11    12   ar
    31    12    13   ar
    32    13    14   ar
    33    14    15   ar
    34    15    16   ar
    35    20    21   ar
    36    21    22    1
    37    21    23   ar
    38    28    29   ar
    39    29    25   ar
    40    23    17   ar
    41    16     3    1
    42    40    35   ar
    43    16    11   ar
    44    32    33    1
