@<TRIPOS>MOLECULE
*****
 34 36 0 0 0
SMALL
GASTEIGER

@<TRIPOS>ATOM
      1 N          63.8795   86.5350   13.7964 N.3     1  UNL1       -0.1591
      2 C          64.3820   87.4199   14.8983 C.3     1  UNL1        0.0991
      3 C          64.2695   88.9104   14.7734 C.3     1  UNL1        0.0627
      4 C          63.6545   89.5160   13.5466 C.3     1  UNL1        0.1688
      5 C          63.1519   88.6310   12.4447 C.3     1  UNL1        0.0627
      6 C          63.2644   87.1405   12.5696 C.3     1  UNL1        0.0991
      7 S          63.9919   85.0443   13.9213 S.O2    1  UNL1        0.0459
      8 O          62.6453   84.8890   13.2791 O.2     1  UNL1       -0.1572
      9 O          65.3386   85.1997   14.5634 O.2     1  UNL1       -0.1572
     10 C          64.1043   83.5538   14.0461 C.3     1  UNL1        0.1958
     11 C          62.6957   83.6845   15.4703 C.3     1  UNL1        0.0310
     12 C          62.8825   82.7305   14.3280 C.3     1  UNL1        0.1509
     13 N          61.6217   82.1067   14.8487 N.am    1  UNL1       -0.2825
     14 C          61.2847   80.9392   13.9691 C.2     1  UNL1        0.3068
     15 O          60.1027   80.0292   14.1263 O.2     1  UNL1       -0.2524
     16 N          62.3373   80.8416   12.9049 N.am    1  UNL1       -0.2383
     17 C          63.3248   81.9486   13.1267 C.2     1  UNL1        0.2469
     18 O          64.5410   82.2252   12.2934 O.2     1  UNL1       -0.2729
     19 H          61.1059   82.4102   15.6304 H       1  UNL1        0.1514
     20 H          62.3736   80.1689   12.1869 H       1  UNL1        0.1591
     21 O          63.5421   91.0066   13.4217 O.3     1  UNL1       -0.4791
     22 C          64.5904   91.7780   12.6761 C.ar    1  UNL1        0.1386
     23 C          64.4036   92.0822   11.2192 C.ar    1  UNL1        0.0400
     24 C          65.4521   92.8536   10.4737 C.ar    1  UNL1        0.0402
     25 C          66.6872   93.3208   11.1851 C.ar    1  UNL1        0.1444
     26 C          66.8740   93.0166   12.6420 C.ar    1  UNL1        0.0402
     27 C          65.8256   92.2452   13.3875 C.ar    1  UNL1        0.0400
     28 O          67.7356   94.0922   10.4395 O.3     1  UNL1       -0.4263
     29 C          67.3309   95.1520    9.4582 C.3     1  UNL1        0.4723
     30 F          67.6939   94.2401    8.3238 F       1  UNL1       -0.1579
     31 F          66.9680   96.0638   10.5925 F       1  UNL1       -0.1579
     32 C          66.9263   96.2118    8.4768 C.3     1  UNL1        0.4202
     33 F          67.9591   96.8560    7.6003 F       1  UNL1       -0.1876
     34 F          65.4888   96.6274    8.3720 F       1  UNL1       -0.1876
@<TRIPOS>BOND
     1    12    11    1
     2    12    10    1
     3    10     7    1
     4     7     8    2
     5     7     9    2
     6     7     1    1
     7     1     2    1
     8     2     3    1
     9     3     4    1
    10     4    21    1
    11    21    22    1
    12    22    23   ar
    13    23    24   ar
    14    24    25   ar
    15    25    28    1
    16    28    29    1
    17    29    30    1
    18    29    31    1
    19    29    32    1
    20    32    33    1
    21    32    34    1
    22    25    26   ar
    23    26    27   ar
    24     4     5    1
    25     5     6    1
    26    12    13    1
    27    13    14   am
    28    14    15    2
    29    14    16   am
    30    16    17   am
    31    17    18    2
    32    17    12    1
    33     6     1    1
    34    27    22   ar
    35    13    19    1
    36    16    20    1
@<TRIPOS>MOLECULE
*****
 34 36 0 0 0
SMALL
GASTEIGER

@<TRIPOS>ATOM
      1 N          63.7436   86.3736   13.7209 N.3     1  UNL1       -0.1591
      2 C          64.2872   87.1932   14.8535 C.3     1  UNL1        0.0991
      3 C          64.2462   88.6909   14.7827 C.3     1  UNL1        0.0627
      4 C          63.6616   89.3691   13.5792 C.3     1  UNL1        0.1688
      5 C          63.1180   88.5495   12.4466 C.3     1  UNL1        0.0627
      6 C          63.1590   87.0518   12.5175 C.3     1  UNL1        0.0991
      7 S          63.7847   84.8758   13.7917 S.O2    1  UNL1        0.0459
      8 O          62.4154   84.8096   13.1830 O.2     1  UNL1       -0.1572
      9 O          65.1539   84.9420   14.4005 O.2     1  UNL1       -0.1572
     10 C          63.8256   83.3781   13.8625 C.3     1  UNL1        0.1958
     11 C          64.5975   83.6369   12.0276 C.3     1  UNL1        0.0310
     12 C          63.7225   82.5647   12.6064 C.3     1  UNL1        0.1509
     13 N          63.8022   81.9756   11.2293 N.am    1  UNL1       -0.2825
     14 C          62.9981   80.7093   11.2196 C.2     1  UNL1        0.3068
     15 O          62.8046   79.7967   10.0449 O.2     1  UNL1       -0.2524
     16 N          62.4213   80.5160   12.5907 N.am    1  UNL1       -0.2383
     17 C          62.8690   81.6627   13.4478 C.2     1  UNL1        0.2469
     18 O          62.5239   81.8707   14.8926 O.2     1  UNL1       -0.2729
     19 H          64.2957   82.3536   10.4658 H       1  UNL1        0.1514
     20 H          61.8494   79.7678   12.8776 H       1  UNL1        0.1591
     21 O          63.6206   90.8669   13.5084 O.3     1  UNL1       -0.4791
     22 C          64.6560   91.6089   12.7164 C.ar    1  UNL1        0.1386
     23 C          65.9636   91.9785   13.3517 C.ar    1  UNL1        0.0400
     24 C          66.9990   92.7205   12.5596 C.ar    1  UNL1        0.0402
     25 C          66.7267   93.0930   11.1323 C.ar    1  UNL1        0.1444
     26 C          65.4191   92.7235   10.4971 C.ar    1  UNL1        0.0402
     27 C          64.3837   91.9815   11.2891 C.ar    1  UNL1        0.0400
     28 O          67.7621   93.8350   10.3403 O.3     1  UNL1       -0.4263
     29 C          67.3709   95.0401    9.5374 C.3     1  UNL1        0.4723
     30 F          66.9962   95.7593   10.7993 F       1  UNL1       -0.1579
     31 F          67.7455   94.3210    8.2755 F       1  UNL1       -0.1579
     32 C          66.9796   96.2452    8.7345 C.3     1  UNL1        0.4202
     33 F          65.6203   96.8546    8.9104 F       1  UNL1       -0.1876
     34 F          67.9476   96.8409    7.7556 F       1  UNL1       -0.1876
@<TRIPOS>BOND
     1    12    11    1
     2    12    10    1
     3    10     7    1
     4     7     8    2
     5     7     9    2
     6     7     1    1
     7     1     2    1
     8     2     3    1
     9     3     4    1
    10     4    21    1
    11    21    22    1
    12    22    23   ar
    13    23    24   ar
    14    24    25   ar
    15    25    28    1
    16    28    29    1
    17    29    30    1
    18    29    31    1
    19    29    32    1
    20    32    33    1
    21    32    34    1
    22    25    26   ar
    23    26    27   ar
    24     4     5    1
    25     5     6    1
    26    12    13    1
    27    13    14   am
    28    14    15    2
    29    14    16   am
    30    16    17   am
    31    17    18    2
    32    17    12    1
    33     6     1    1
    34    27    22   ar
    35    13    19    1
    36    16    20    1
@<TRIPOS>MOLECULE
*****
 34 36 0 0 0
SMALL
GASTEIGER

@<TRIPOS>ATOM
      1 N          65.7130   92.4854   13.0283 N.3     1  UNL1       -0.1591
      2 C          66.1121   92.5278   14.4735 C.3     1  UNL1        0.0991
      3 C          65.3413   91.7361   15.4879 C.3     1  UNL1        0.0627
      4 C          64.1715   90.9020   15.0570 C.3     1  UNL1        0.1688
      5 C          63.7724   90.8596   13.6118 C.3     1  UNL1        0.0627
      6 C          64.5432   91.6513   12.5974 C.3     1  UNL1        0.0991
      7 S          66.4838   93.2772   12.0138 S.O2    1  UNL1        0.0459
      8 O          65.7515   92.5747   10.9092 O.2     1  UNL1       -0.1572
      9 O          67.2161   93.9797   13.1184 O.2     1  UNL1       -0.1572
     10 C          67.2545   94.0689   10.9993 C.3     1  UNL1        0.1958
     11 C          65.6332   95.2355   11.1997 C.3     1  UNL1        0.0310
     12 C          66.5288   94.9540   10.0298 C.3     1  UNL1        0.1509
     13 N          65.6159   95.8979    9.3048 N.am    1  UNL1       -0.2825
     14 C          66.0990   96.0147    7.8895 C.2     1  UNL1        0.3068
     15 O          65.4794   96.8556    6.8129 O.2     1  UNL1       -0.2524
     16 N          67.3104   95.1429    7.7398 N.am    1  UNL1       -0.2383
     17 C          67.5761   94.4874    9.0625 C.2     1  UNL1        0.2469
     18 O          68.6929   93.5328    9.3649 O.2     1  UNL1       -0.2729
     19 H          64.8365   96.3597    9.6902 H       1  UNL1        0.1514
     20 H          67.8385   95.0222    6.9177 H       1  UNL1        0.1591
     21 O          63.4007   90.1102   16.0715 O.3     1  UNL1       -0.4791
     22 C          63.4776   88.6122   16.0698 C.ar    1  UNL1        0.1386
     23 C          62.8694   87.8287   17.1950 C.ar    1  UNL1        0.0400
     24 C          62.9463   86.3306   17.1932 C.ar    1  UNL1        0.0402
     25 C          63.6315   85.6161   16.0663 C.ar    1  UNL1        0.1444
     26 C          64.2397   86.3997   14.9411 C.ar    1  UNL1        0.0402
     27 C          64.1628   87.8977   14.9428 C.ar    1  UNL1        0.0400
     28 O          63.7084   84.1181   16.0646 O.3     1  UNL1       -0.4263
     29 C          62.9611   83.3300   15.0301 C.3     1  UNL1        0.4723
     30 F          61.7309   84.1455   15.2974 F       1  UNL1       -0.1579
     31 F          64.1913   82.5144   14.7627 F       1  UNL1       -0.1579
     32 C          62.2138   82.5418   13.9955 C.3     1  UNL1        0.4202
     33 F          62.3059   82.9262   12.5486 F       1  UNL1       -0.1876
     34 F          61.3743   81.3690   14.4080 F       1  UNL1       -0.1876
@<TRIPOS>BOND
     1    12    11    1
     2    12    10    1
     3    10     7    1
     4     7     8    2
     5     7     9    2
     6     7     1    1
     7     1     2    1
     8     2     3    1
     9     3     4    1
    10     4    21    1
    11    21    22    1
    12    22    23   ar
    13    23    24   ar
    14    24    25   ar
    15    25    28    1
    16    28    29    1
    17    29    30    1
    18    29    31    1
    19    29    32    1
    20    32    33    1
    21    32    34    1
    22    25    26   ar
    23    26    27   ar
    24     4     5    1
    25     5     6    1
    26    12    13    1
    27    13    14   am
    28    14    15    2
    29    14    16   am
    30    16    17   am
    31    17    18    2
    32    17    12    1
    33     6     1    1
    34    27    22   ar
    35    13    19    1
    36    16    20    1
@<TRIPOS>MOLECULE
*****
 34 36 0 0 0
SMALL
GASTEIGER

@<TRIPOS>ATOM
      1 N          63.8685   85.8281   13.6790 N.3     1  UNL1       -0.1591
      2 C          63.2585   86.6113   12.5545 C.3     1  UNL1        0.0991
      3 C          63.1032   88.0984   12.6741 C.3     1  UNL1        0.0627
      4 C          63.5578   88.8023   13.9182 C.3     1  UNL1        0.1688
      5 C          64.1677   88.0191   15.0427 C.3     1  UNL1        0.0627
      6 C          64.3231   86.5320   14.9231 C.3     1  UNL1        0.0991
      7 S          64.0238   84.3409   13.5594 S.O2    1  UNL1        0.0459
      8 O          65.3499   84.4235   14.2555 O.2     1  UNL1       -0.1572
      9 O          62.6978   84.2583   12.8633 O.2     1  UNL1       -0.1572
     10 C          64.1793   82.8538   13.4399 C.3     1  UNL1        0.1958
     11 C          64.6338   83.3272   11.5428 C.3     1  UNL1        0.0310
     12 C          63.8850   82.1713   12.1370 C.3     1  UNL1        0.1509
     13 N          63.7472   81.7304   10.7099 N.am    1  UNL1       -0.2825
     14 C          62.9747   80.4446   10.6945 C.2     1  UNL1        0.3068
     15 O          62.6066   79.6518    9.4755 O.2     1  UNL1       -0.2524
     16 N          62.6351   80.0909   12.1121 N.am    1  UNL1       -0.2383
     17 C          63.1977   81.1580   13.0036 C.2     1  UNL1        0.2469
     18 O          63.0915   81.2038   14.4991 O.2     1  UNL1       -0.2729
     19 H          64.1016   82.2021    9.9217 H       1  UNL1        0.1514
     20 H          62.1314   79.2976   12.4057 H       1  UNL1        0.1591
     21 O          63.4024   90.2895   14.0377 O.3     1  UNL1       -0.4791
     22 C          64.3667   91.2028   13.3406 C.ar    1  UNL1        0.1386
     23 C          64.1590   91.5517   11.8966 C.ar    1  UNL1        0.0400
     24 C          65.1233   92.4650   11.1995 C.ar    1  UNL1        0.0402
     25 C          66.2953   93.0294   11.9464 C.ar    1  UNL1        0.1444
     26 C          66.5031   92.6804   13.3904 C.ar    1  UNL1        0.0402
     27 C          65.5388   91.7671   14.0875 C.ar    1  UNL1        0.0400
     28 O          67.2596   93.9426   11.2493 O.3     1  UNL1       -0.4263
     29 C          67.7762   93.5886    9.8862 C.3     1  UNL1        0.4723
     30 F          68.2005   92.2434   10.3964 F       1  UNL1       -0.1579
     31 F          67.3519   94.9339    9.3761 F       1  UNL1       -0.1579
     32 C          68.2927   93.2347    8.5232 C.3     1  UNL1        0.4202
     33 F          69.1686   92.0305    8.3425 F       1  UNL1       -0.1876
     34 F          67.9333   94.0850    7.3408 F       1  UNL1       -0.1876
@<TRIPOS>BOND
     1    12    11    1
     2    12    10    1
     3    10     7    1
     4     7     8    2
     5     7     9    2
     6     7     1    1
     7     1     2    1
     8     2     3    1
     9     3     4    1
    10     4    21    1
    11    21    22    1
    12    22    23   ar
    13    23    24   ar
    14    24    25   ar
    15    25    28    1
    16    28    29    1
    17    29    30    1
    18    29    31    1
    19    29    32    1
    20    32    33    1
    21    32    34    1
    22    25    26   ar
    23    26    27   ar
    24     4     5    1
    25     5     6    1
    26    12    13    1
    27    13    14   am
    28    14    15    2
    29    14    16   am
    30    16    17   am
    31    17    18    2
    32    17    12    1
    33     6     1    1
    34    27    22   ar
    35    13    19    1
    36    16    20    1
@<TRIPOS>MOLECULE
*****
 34 36 0 0 0
SMALL
GASTEIGER

@<TRIPOS>ATOM
      1 N          64.5687   91.6981   11.6356 N.3     1  UNL1       -0.1591
      2 C          63.7794   91.3923   10.3973 C.3     1  UNL1        0.0991
      3 C          62.7953   90.2603   10.3957 C.3     1  UNL1        0.0627
      4 C          62.6007   89.4339   11.6324 C.3     1  UNL1        0.1688
      5 C          63.3901   89.7397   12.8707 C.3     1  UNL1        0.0627
      6 C          64.3741   90.8718   12.8723 C.3     1  UNL1        0.0991
      7 S          65.5528   92.8303   11.6373 S.O2    1  UNL1        0.0459
      8 O          65.0541   93.2657   10.2913 O.2     1  UNL1       -0.1572
      9 O          66.0515   92.3949   12.9832 O.2     1  UNL1       -0.1572
     10 C          66.5368   93.9624   11.6389 C.3     1  UNL1        0.1958
     11 C          67.5063   93.0739   10.1222 C.3     1  UNL1        0.0310
     12 C          67.0720   94.4927   10.3419 C.3     1  UNL1        0.1509
     13 N          67.6980   94.7265    8.9989 N.am    1  UNL1       -0.2825
     14 C          67.5387   96.1790    8.6598 C.2     1  UNL1        0.3068
     15 O          68.0195   96.8498    7.4072 O.2     1  UNL1       -0.2524
     16 N          66.8143   96.8429    9.7931 N.am    1  UNL1       -0.2383
     17 C          66.5258   95.8007   10.8327 C.2     1  UNL1        0.2469
     18 O          65.8159   96.0269   12.1345 O.2     1  UNL1       -0.2729
     19 H          68.1364   94.0461    8.4385 H       1  UNL1        0.1514
     20 H          66.5708   97.7953    9.8455 H       1  UNL1        0.1591
     21 O          61.6166   88.3018   11.6307 O.3     1  UNL1       -0.4791
     22 C          62.0908   86.8962   11.4087 C.ar    1  UNL1        0.1386
     23 C          62.2884   86.3829   10.0132 C.ar    1  UNL1        0.0400
     24 C          62.7626   84.9772    9.7912 C.ar    1  UNL1        0.0402
     25 C          63.0393   84.0849   10.9647 C.ar    1  UNL1        0.1444
     26 C          62.8418   84.5982   12.3602 C.ar    1  UNL1        0.0402
     27 C          62.3676   86.0038   12.5822 C.ar    1  UNL1        0.0400
     28 O          63.5136   82.6793   10.7427 O.3     1  UNL1       -0.4263
     29 C          63.4052   81.6682   11.8454 C.3     1  UNL1        0.4723
     30 F          61.9282   81.5646   11.6053 F       1  UNL1       -0.1579
     31 F          64.8823   81.7718   12.0854 F       1  UNL1       -0.1579
     32 C          63.2969   80.6571   12.9481 C.3     1  UNL1        0.4202
     33 F          62.3465   79.5041   12.8176 F       1  UNL1       -0.1876
     34 F          64.1391   80.7991   14.1812 F       1  UNL1       -0.1876
@<TRIPOS>BOND
     1    12    11    1
     2    12    10    1
     3    10     7    1
     4     7     8    2
     5     7     9    2
     6     7     1    1
     7     1     2    1
     8     2     3    1
     9     3     4    1
    10     4    21    1
    11    21    22    1
    12    22    23   ar
    13    23    24   ar
    14    24    25   ar
    15    25    28    1
    16    28    29    1
    17    29    30    1
    18    29    31    1
    19    29    32    1
    20    32    33    1
    21    32    34    1
    22    25    26   ar
    23    26    27   ar
    24     4     5    1
    25     5     6    1
    26    12    13    1
    27    13    14   am
    28    14    15    2
    29    14    16   am
    30    16    17   am
    31    17    18    2
    32    17    12    1
    33     6     1    1
    34    27    22   ar
    35    13    19    1
    36    16    20    1
@<TRIPOS>MOLECULE
*****
 34 36 0 0 0
SMALL
GASTEIGER

@<TRIPOS>ATOM
      1 N          65.5665   92.1826   12.9118 N.3     1  UNL1       -0.1591
      2 C          66.2008   91.6346   14.1557 C.3     1  UNL1        0.0991
      3 C          65.6210   90.4220   14.8215 C.3     1  UNL1        0.0627
      4 C          64.4070   89.7573   14.2433 C.3     1  UNL1        0.1688
      5 C          63.7727   90.3053   12.9994 C.3     1  UNL1        0.0627
      6 C          64.3525   91.5179   12.3337 C.3     1  UNL1        0.0991
      7 S          66.1463   93.3953   12.2460 S.O2    1  UNL1        0.0459
      8 O          65.0619   93.3453   11.2108 O.2     1  UNL1       -0.1572
      9 O          67.2307   93.4453   13.2811 O.2     1  UNL1       -0.1572
     10 C          66.7260   94.6080   11.5801 C.3     1  UNL1        0.1958
     11 C          67.1813   93.4505   10.0045 C.3     1  UNL1        0.0310
     12 C          66.5518   94.8084   10.1038 C.3     1  UNL1        0.1509
     13 N          66.5092   94.7249    8.6068 N.am    1  UNL1       -0.2825
     14 C          65.8897   95.9894    8.0895 C.2     1  UNL1        0.3068
     15 O          65.6522   96.3292    6.6479 O.2     1  UNL1       -0.2524
     16 N          65.5496   96.8543    9.2669 N.am    1  UNL1       -0.2383
     17 C          65.9587   96.1244   10.5118 C.2     1  UNL1        0.2469
     18 O          65.8023   96.6230   11.9178 O.2     1  UNL1       -0.2729
     19 H          66.8312   93.9724    8.0598 H       1  UNL1        0.1514
     20 H          65.1312   97.7447    9.2292 H       1  UNL1        0.1591
     21 O          63.8272   88.5446   14.9091 O.3     1  UNL1       -0.4791
     22 C          63.8616   87.2173   14.2113 C.ar    1  UNL1        0.1386
     23 C          64.6242   86.0737   14.8118 C.ar    1  UNL1        0.0400
     24 C          64.6585   84.7463   14.1139 C.ar    1  UNL1        0.0402
     25 C          63.9304   84.5626   12.8155 C.ar    1  UNL1        0.1444
     26 C          63.1678   85.7062   12.2149 C.ar    1  UNL1        0.0402
     27 C          63.1334   87.0335   12.9128 C.ar    1  UNL1        0.0400
     28 O          63.9648   83.2353   12.1176 O.3     1  UNL1       -0.4263
     29 C          63.0617   82.1264   12.5701 C.3     1  UNL1        0.4723
     30 F          63.2499   81.4354   11.2521 F       1  UNL1       -0.1579
     31 F          62.8734   82.8175   13.8880 F       1  UNL1       -0.1579
     32 C          62.1586   81.0175   13.0225 C.3     1  UNL1        0.4202
     33 F          62.4986   79.5933   12.6971 F       1  UNL1       -0.1876
     34 F          60.9154   81.3329   13.8005 F       1  UNL1       -0.1876
@<TRIPOS>BOND
     1    12    11    1
     2    12    10    1
     3    10     7    1
     4     7     8    2
     5     7     9    2
     6     7     1    1
     7     1     2    1
     8     2     3    1
     9     3     4    1
    10     4    21    1
    11    21    22    1
    12    22    23   ar
    13    23    24   ar
    14    24    25   ar
    15    25    28    1
    16    28    29    1
    17    29    30    1
    18    29    31    1
    19    29    32    1
    20    32    33    1
    21    32    34    1
    22    25    26   ar
    23    26    27   ar
    24     4     5    1
    25     5     6    1
    26    12    13    1
    27    13    14   am
    28    14    15    2
    29    14    16   am
    30    16    17   am
    31    17    18    2
    32    17    12    1
    33     6     1    1
    34    27    22   ar
    35    13    19    1
    36    16    20    1
@<TRIPOS>MOLECULE
*****
 34 36 0 0 0
SMALL
GASTEIGER

@<TRIPOS>ATOM
      1 N          63.9393   86.3341   13.9204 N.3     1  UNL1       -0.1591
      2 C          64.2360   86.9217   15.2682 C.3     1  UNL1        0.0991
      3 C          64.1867   88.4077   15.4659 C.3     1  UNL1        0.0627
      4 C          63.8406   89.3063   14.3157 C.3     1  UNL1        0.1688
      5 C          63.5438   88.7187   12.9679 C.3     1  UNL1        0.0627
      6 C          63.5932   87.2326   12.7702 C.3     1  UNL1        0.0991
      7 S          63.9886   84.8480   13.7227 S.O2    1  UNL1        0.0459
      8 O          65.3048   84.7962   14.4401 O.2     1  UNL1       -0.1572
      9 O          62.6723   84.8997   13.0053 O.2     1  UNL1       -0.1572
     10 C          64.0379   83.3619   13.5250 C.3     1  UNL1        0.1958
     11 C          63.0099   83.3571   15.2492 C.3     1  UNL1        0.0310
     12 C          62.9136   82.5016   14.0208 C.3     1  UNL1        0.1509
     13 N          61.8095   81.8201   14.7734 N.am    1  UNL1       -0.2825
     14 C          61.2659   80.7233   13.9065 C.2     1  UNL1        0.3068
     15 O          60.1499   79.7872   14.2650 O.2     1  UNL1       -0.2524
     16 N          62.0340   80.7269   12.6181 N.am    1  UNL1       -0.2383
     17 C          63.0524   81.8260   12.6887 C.2     1  UNL1        0.2469
     18 O          64.0367   82.1861   11.6157 O.2     1  UNL1       -0.2729
     19 H          61.4966   82.0520   15.6776 H       1  UNL1        0.1514
     20 H          61.8943   80.1154   11.8593 H       1  UNL1        0.1591
     21 O          63.7913   90.7924   14.5134 O.3     1  UNL1       -0.4791
     22 C          64.5962   91.6943   13.6254 C.ar    1  UNL1        0.1386
     23 C          65.8318   92.3601   14.1546 C.ar    1  UNL1        0.0400
     24 C          66.6367   93.2620   13.2664 C.ar    1  UNL1        0.0402
     25 C          66.2060   93.4981   11.8491 C.ar    1  UNL1        0.1444
     26 C          64.9705   92.8323   11.3199 C.ar    1  UNL1        0.0402
     27 C          64.1656   91.9304   12.2080 C.ar    1  UNL1        0.0400
     28 O          67.0109   94.3999   10.9611 O.3     1  UNL1       -0.4263
     29 C          67.7430   93.8323    9.7813 C.3     1  UNL1        0.4723
     30 F          67.3280   92.4497   10.1890 F       1  UNL1       -0.1579
     31 F          68.1581   95.2148    9.3736 F       1  UNL1       -0.1579
     32 C          68.4751   93.2646    8.6016 C.3     1  UNL1        0.4202
     33 F          69.5093   92.1971    8.8034 F       1  UNL1       -0.1876
     34 F          68.1729   93.7645    7.2199 F       1  UNL1       -0.1876
@<TRIPOS>BOND
     1    12    11    1
     2    12    10    1
     3    10     7    1
     4     7     8    2
     5     7     9    2
     6     7     1    1
     7     1     2    1
     8     2     3    1
     9     3     4    1
    10     4    21    1
    11    21    22    1
    12    22    23   ar
    13    23    24   ar
    14    24    25   ar
    15    25    28    1
    16    28    29    1
    17    29    30    1
    18    29    31    1
    19    29    32    1
    20    32    33    1
    21    32    34    1
    22    25    26   ar
    23    26    27   ar
    24     4     5    1
    25     5     6    1
    26    12    13    1
    27    13    14   am
    28    14    15    2
    29    14    16   am
    30    16    17   am
    31    17    18    2
    32    17    12    1
    33     6     1    1
    34    27    22   ar
    35    13    19    1
    36    16    20    1
@<TRIPOS>MOLECULE
*****
 34 36 0 0 0
SMALL
GASTEIGER

@<TRIPOS>ATOM
      1 N          61.1521   86.8236    9.6912 N.3     1  UNL1       -0.1591
      2 C          60.8451   88.2819    9.8615 C.3     1  UNL1        0.0991
      3 C          59.8670   88.9544    8.9444 C.3     1  UNL1        0.0627
      4 C          59.1959   88.1686    7.8571 C.3     1  UNL1        0.1688
      5 C          59.5029   86.7103    7.6869 C.3     1  UNL1        0.0627
      6 C          60.4810   86.0378    8.6040 C.3     1  UNL1        0.0991
      7 S          62.1302   86.1510   10.6083 S.O2    1  UNL1        0.0459
      8 O          63.0237   85.8572    9.4398 O.2     1  UNL1       -0.1572
      9 O          61.2368   86.4447   11.7768 O.2     1  UNL1       -0.1572
     10 C          63.1083   85.4784   11.5253 C.3     1  UNL1        0.1958
     11 C          62.4972   83.7718   10.6628 C.3     1  UNL1        0.0310
     12 C          62.7979   84.1237   12.0897 C.3     1  UNL1        0.1509
     13 N          62.4246   82.6955   12.3557 N.am    1  UNL1       -0.2825
     14 C          62.5596   82.4479   13.8290 C.2     1  UNL1        0.3068
     15 O          62.2859   81.1525   14.5340 O.2     1  UNL1       -0.2524
     16 N          63.0163   83.7231   14.4734 N.am    1  UNL1       -0.2383
     17 C          63.1636   84.7588   13.3985 C.2     1  UNL1        0.2469
     18 O          63.5999   86.1800   13.5974 O.2     1  UNL1       -0.2729
     19 H          62.1409   82.0363   11.6817 H       1  UNL1        0.1514
     20 H          63.1890   83.8568   15.4334 H       1  UNL1        0.1591
     21 O          58.2178   88.8412    6.9401 O.3     1  UNL1       -0.4791
     22 C          58.6745   89.9507    6.0400 C.ar    1  UNL1        0.1386
     23 C          57.6725   90.8976    5.4489 C.ar    1  UNL1        0.0400
     24 C          58.1293   92.0073    4.5488 C.ar    1  UNL1        0.0402
     25 C          59.5880   92.1699    4.2397 C.ar    1  UNL1        0.1444
     26 C          60.5900   91.2230    4.8308 C.ar    1  UNL1        0.0402
     27 C          60.1333   90.1135    5.7309 C.ar    1  UNL1        0.0400
     28 O          60.0447   93.2795    3.3396 O.3     1  UNL1       -0.4263
     29 C          60.6157   92.9629    1.9892 C.3     1  UNL1        0.4723
     30 F          59.2288   92.8117    1.4382 F       1  UNL1       -0.1579
     31 F          62.0027   93.1140    2.5402 F       1  UNL1       -0.1579
     32 C          61.1867   92.6462    0.6387 C.3     1  UNL1        0.4202
     33 F          62.4651   93.2931    0.1945 F       1  UNL1       -0.1876
     34 F          60.4793   91.6827   -0.2675 F       1  UNL1       -0.1876
@<TRIPOS>BOND
     1    12    11    1
     2    12    10    1
     3    10     7    1
     4     7     8    2
     5     7     9    2
     6     7     1    1
     7     1     2    1
     8     2     3    1
     9     3     4    1
    10     4    21    1
    11    21    22    1
    12    22    23   ar
    13    23    24   ar
    14    24    25   ar
    15    25    28    1
    16    28    29    1
    17    29    30    1
    18    29    31    1
    19    29    32    1
    20    32    33    1
    21    32    34    1
    22    25    26   ar
    23    26    27   ar
    24     4     5    1
    25     5     6    1
    26    12    13    1
    27    13    14   am
    28    14    15    2
    29    14    16   am
    30    16    17   am
    31    17    18    2
    32    17    12    1
    33     6     1    1
    34    27    22   ar
    35    13    19    1
    36    16    20    1
@<TRIPOS>MOLECULE
*****
 34 36 0 0 0
SMALL
GASTEIGER

@<TRIPOS>ATOM
      1 N          61.1087   86.6391    9.3585 N.3     1  UNL1       -0.1591
      2 C          60.9422   88.0989    9.6603 C.3     1  UNL1        0.0991
      3 C          59.9987   88.9308    8.8432 C.3     1  UNL1        0.0627
      4 C          59.2216   88.3028    7.7243 C.3     1  UNL1        0.1688
      5 C          59.3882   86.8430    7.4225 C.3     1  UNL1        0.0627
      6 C          60.3317   86.0111    8.2396 C.3     1  UNL1        0.0991
      7 S          62.0523   85.8071   10.1756 S.O2    1  UNL1        0.0459
      8 O          62.8961   85.5689    8.9585 O.2     1  UNL1       -0.1572
      9 O          61.2086   86.0453   11.3926 O.2     1  UNL1       -0.1572
     10 C          62.9959   84.9752   10.9926 C.3     1  UNL1        0.1958
     11 C          63.1422   86.4903   12.3012 C.3     1  UNL1        0.0310
     12 C          62.9287   85.0177   12.4904 C.3     1  UNL1        0.1509
     13 N          62.9061   85.3681   13.9488 N.am    1  UNL1       -0.2825
     14 C          62.6927   84.1031   14.7261 C.2     1  UNL1        0.3068
     15 O          62.6041   83.9901   16.2193 O.2     1  UNL1       -0.2524
     16 N          62.5833   82.9709   13.7483 N.am    1  UNL1       -0.2383
     17 C          62.7292   83.5362   12.3665 C.2     1  UNL1        0.2469
     18 O          62.6835   82.7568   11.0858 O.2     1  UNL1       -0.2729
     19 H          63.0127   86.2699   14.3289 H       1  UNL1        0.1514
     20 H          62.4408   82.0232   13.9737 H       1  UNL1        0.1591
     21 O          58.2780   89.1348    6.9073 O.3     1  UNL1       -0.4791
     22 C          58.8159   90.1529    5.9460 C.ar    1  UNL1        0.1386
     23 C          60.2864   90.2065    5.6552 C.ar    1  UNL1        0.0400
     24 C          60.8242   91.2248    4.6939 C.ar    1  UNL1        0.0402
     25 C          59.8915   92.1893    4.0234 C.ar    1  UNL1        0.1444
     26 C          58.4209   92.1356    4.3141 C.ar    1  UNL1        0.0402
     27 C          57.8831   91.1175    5.2754 C.ar    1  UNL1        0.0400
     28 O          60.4293   93.2074    3.0621 O.3     1  UNL1       -0.4263
     29 C          60.6221   92.8477    1.6187 C.3     1  UNL1        0.4723
     30 F          62.0199   92.3936    1.9185 F       1  UNL1       -0.1579
     31 F          59.2243   93.3018    1.3188 F       1  UNL1       -0.1579
     32 C          60.8149   92.4880    0.1753 C.3     1  UNL1        0.4202
     33 F          62.0634   92.9082   -0.5421 F       1  UNL1       -0.1876
     34 F          59.7591   91.7081   -0.5508 F       1  UNL1       -0.1876
@<TRIPOS>BOND
     1    12    11    1
     2    12    10    1
     3    10     7    1
     4     7     8    2
     5     7     9    2
     6     7     1    1
     7     1     2    1
     8     2     3    1
     9     3     4    1
    10     4    21    1
    11    21    22    1
    12    22    23   ar
    13    23    24   ar
    14    24    25   ar
    15    25    28    1
    16    28    29    1
    17    29    30    1
    18    29    31    1
    19    29    32    1
    20    32    33    1
    21    32    34    1
    22    25    26   ar
    23    26    27   ar
    24     4     5    1
    25     5     6    1
    26    12    13    1
    27    13    14   am
    28    14    15    2
    29    14    16   am
    30    16    17   am
    31    17    18    2
    32    17    12    1
    33     6     1    1
    34    27    22   ar
    35    13    19    1
    36    16    20    1
