@<TRIPOS>MOLECULE
*****
 21 23 0 0 0
SMALL
GASTEIGER

@<TRIPOS>ATOM
      1 C          63.8712   89.4623   14.3729 C.ar    1  UNL1        0.1387
      2 C          63.2692   89.3570   13.0031 C.ar    1  UNL1        0.0369
      3 C          63.6213   90.3650   11.9496 C.ar    1  UNL1        0.0031
      4 C          64.5754   91.4784   12.2659 C.ar    1  UNL1        0.0002
      5 C          64.9275   92.4865   11.2124 C.ar    1  UNL1        0.0001
      6 C          65.8815   93.5998   11.5287 C.ar    1  UNL1        0.0027
      7 C          66.4836   93.7052   12.8986 C.ar    1  UNL1        0.0001
      8 C          66.1315   92.6971   13.9521 C.ar    1  UNL1        0.0001
      9 C          65.1773   91.5837   13.6357 C.ar    1  UNL1        0.0030
     10 C          64.8253   90.5757   14.6892 C.ar    1  UNL1        0.0369
     11 C          66.2336   94.6079   10.4752 C.ar    1  UNL1        0.0321
     12 C          65.4016   95.8456   10.3136 C.ar    1  UNL1        0.1001
     13 N          65.7537   96.8536    9.2601 N.ar    1  UNL1       -0.2422
     14 C          66.9378   96.6240    8.3682 C.ar    1  UNL1        0.1001
     15 C          67.7697   95.3864    8.5299 C.ar    1  UNL1        0.0348
     16 C          67.4176   94.3783    9.5834 C.ar    1  UNL1        0.0446
     17 N          68.2495   93.1407    9.7451 N.pl3   1  UNL1       -0.3569
     18 H          69.0266   92.9900    9.1597 H       1  UNL1        0.1424
     19 H          68.0184   92.4791   10.4365 H       1  UNL1        0.1424
     20 C          63.1413   88.9104   16.8045 C.3     1  UNL1        0.2525
     21 O          63.5191   88.4542   15.4264 O.3     1  UNL1       -0.4714
@<TRIPOS>BOND
     1    20    21    1
     2    21     1    1
     3     1     2   ar
     4     2     3   ar
     5     3     4   ar
     6     4     5   ar
     7     5     6   ar
     8     6    11    1
     9    11    12   ar
    10    12    13   ar
    11    13    14   ar
    12    14    15   ar
    13    15    16   ar
    14    16    17    1
    15     6     7   ar
    16     7     8   ar
    17     8     9   ar
    18     9    10   ar
    19    10     1   ar
    20     9     4   ar
    21    16    11   ar
    22    17    18    1
    23    17    19    1
@<TRIPOS>MOLECULE
*****
 21 23 0 0 0
SMALL
GASTEIGER

@<TRIPOS>ATOM
      1 C          65.2581   91.4964   14.4172 C.ar    1  UNL1        0.1387
      2 C          64.8348   90.1584   14.9469 C.ar    1  UNL1        0.0369
      3 C          64.0187   89.2366   14.0900 C.ar    1  UNL1        0.0031
      4 C          63.6259   89.6528   12.7035 C.ar    1  UNL1        0.0002
      5 C          62.8097   88.7310   11.8466 C.ar    1  UNL1        0.0001
      6 C          62.4169   89.1472   10.4601 C.ar    1  UNL1        0.0027
      7 C          62.8403   90.4853    9.9304 C.ar    1  UNL1        0.0001
      8 C          63.6564   91.4071   10.7873 C.ar    1  UNL1        0.0001
      9 C          64.0492   90.9908   12.1738 C.ar    1  UNL1        0.0030
     10 C          64.8653   91.9126   13.0307 C.ar    1  UNL1        0.0369
     11 C          61.6008   88.2254    9.6032 C.ar    1  UNL1        0.0321
     12 C          62.0708   86.8234    9.3509 C.ar    1  UNL1        0.1001
     13 N          61.2546   85.9016    8.4940 N.ar    1  UNL1       -0.2422
     14 C          59.9686   86.3819    7.8895 C.ar    1  UNL1        0.1001
     15 C          59.4987   87.7838    8.1418 C.ar    1  UNL1        0.0348
     16 C          60.3148   88.7056    8.9986 C.ar    1  UNL1        0.0446
     17 N          59.8449   90.1075    9.2509 N.pl3   1  UNL1       -0.3569
     18 H          59.0008   90.4227    8.8542 H       1  UNL1        0.1424
     19 H          60.3806   90.7125    9.8133 H       1  UNL1        0.1424
     20 C          66.9141   93.4861   14.6383 C.3     1  UNL1        0.2525
     21 O          66.0743   92.4182   15.2741 O.3     1  UNL1       -0.4714
@<TRIPOS>BOND
     1    20    21    1
     2    21     1    1
     3     1     2   ar
     4     2     3   ar
     5     3     4   ar
     6     4     5   ar
     7     5     6   ar
     8     6    11    1
     9    11    12   ar
    10    12    13   ar
    11    13    14   ar
    12    14    15   ar
    13    15    16   ar
    14    16    17    1
    15     6     7   ar
    16     7     8   ar
    17     8     9   ar
    18     9    10   ar
    19    10     1   ar
    20     9     4   ar
    21    16    11   ar
    22    17    18    1
    23    17    19    1
@<TRIPOS>MOLECULE
*****
 21 23 0 0 0
SMALL
GASTEIGER

@<TRIPOS>ATOM
      1 C          65.9612   93.1199   12.9447 C.ar    1  UNL1        0.1387
      2 C          65.7432   93.5141   11.5140 C.ar    1  UNL1        0.0369
      3 C          64.8672   92.6765   10.6303 C.ar    1  UNL1        0.0031
      4 C          64.2091   91.4446   11.1773 C.ar    1  UNL1        0.0002
      5 C          63.3330   90.6069   10.2937 C.ar    1  UNL1        0.0001
      6 C          62.6749   89.3750   10.8407 C.ar    1  UNL1        0.0027
      7 C          62.8929   88.9807   12.2715 C.ar    1  UNL1        0.0001
      8 C          63.7690   89.8184   13.1552 C.ar    1  UNL1        0.0001
      9 C          64.4271   91.0503   12.6081 C.ar    1  UNL1        0.0030
     10 C          65.3031   91.8880   13.4917 C.ar    1  UNL1        0.0369
     11 C          61.7989   88.5374    9.9570 C.ar    1  UNL1        0.0321
     12 C          62.2479   87.1696    9.5353 C.ar    1  UNL1        0.1001
     13 N          61.3718   86.3320    8.6516 N.ar    1  UNL1       -0.2422
     14 C          60.0468   86.8621    8.1897 C.ar    1  UNL1        0.1001
     15 C          59.5979   88.2298    8.6114 C.ar    1  UNL1        0.0348
     16 C          60.4739   89.0674    9.4951 C.ar    1  UNL1        0.0446
     17 N          60.0250   90.4351    9.9168 N.pl3   1  UNL1       -0.3569
     18 H          59.1554   90.7830    9.6136 H       1  UNL1        0.1424
     19 H          60.6000   90.9848   10.4968 H       1  UNL1        0.1424
     20 C          67.4058   93.3762   15.0888 C.3     1  UNL1        0.2525
     21 O          66.8372   93.9575   13.8284 O.3     1  UNL1       -0.4714
@<TRIPOS>BOND
     1    20    21    1
     2    21     1    1
     3     1     2   ar
     4     2     3   ar
     5     3     4   ar
     6     4     5   ar
     7     5     6   ar
     8     6    11    1
     9    11    12   ar
    10    12    13   ar
    11    13    14   ar
    12    14    15   ar
    13    15    16   ar
    14    16    17    1
    15     6     7   ar
    16     7     8   ar
    17     8     9   ar
    18     9    10   ar
    19    10     1   ar
    20     9     4   ar
    21    16    11   ar
    22    17    18    1
    23    17    19    1
@<TRIPOS>MOLECULE
*****
 21 23 0 0 0
SMALL
GASTEIGER

@<TRIPOS>ATOM
      1 C          63.8641   90.2174   13.0239 C.ar    1  UNL1        0.1387
      2 C          63.0716   89.7250   11.8494 C.ar    1  UNL1        0.0369
      3 C          62.7602   88.2639   11.7142 C.ar    1  UNL1        0.0031
      4 C          63.2412   87.2952   12.7535 C.ar    1  UNL1        0.0002
      5 C          62.9298   85.8342   12.6183 C.ar    1  UNL1        0.0001
      6 C          63.4109   84.8655   13.6576 C.ar    1  UNL1        0.0027
      7 C          64.2034   85.3578   14.8322 C.ar    1  UNL1        0.0001
      8 C          64.5148   86.8189   14.9674 C.ar    1  UNL1        0.0001
      9 C          64.0337   87.7876   13.9280 C.ar    1  UNL1        0.0030
     10 C          64.3451   89.2487   14.0632 C.ar    1  UNL1        0.0369
     11 C          63.0995   83.4044   13.5224 C.ar    1  UNL1        0.0321
     12 C          62.0847   82.7672   14.4247 C.ar    1  UNL1        0.1001
     13 N          61.7732   81.3061   14.2895 N.ar    1  UNL1       -0.2422
     14 C          62.4767   80.4822   13.2519 C.ar    1  UNL1        0.1001
     15 C          63.4914   81.1194   12.3496 C.ar    1  UNL1        0.0348
     16 C          63.8028   82.5805   12.4848 C.ar    1  UNL1        0.0446
     17 N          64.8176   83.2177   11.5825 N.pl3   1  UNL1       -0.3569
     18 H          65.2792   82.6770   10.9015 H       1  UNL1        0.1424
     19 H          65.0219   84.1767   11.6713 H       1  UNL1        0.1424
     20 C          65.1783   92.3192   12.2461 C.3     1  UNL1        0.2525
     21 O          64.1755   91.6784   13.1592 O.3     1  UNL1       -0.4714
@<TRIPOS>BOND
     1    20    21    1
     2    21     1    1
     3     1     2   ar
     4     2     3   ar
     5     3     4   ar
     6     4     5   ar
     7     5     6   ar
     8     6    11    1
     9    11    12   ar
    10    12    13   ar
    11    13    14   ar
    12    14    15   ar
    13    15    16   ar
    14    16    17    1
    15     6     7   ar
    16     7     8   ar
    17     8     9   ar
    18     9    10   ar
    19    10     1   ar
    20     9     4   ar
    21    16    11   ar
    22    17    18    1
    23    17    19    1
@<TRIPOS>MOLECULE
*****
 21 23 0 0 0
SMALL
GASTEIGER

@<TRIPOS>ATOM
      1 C          60.9752   86.6786    9.3047 C.ar    1  UNL1        0.1387
      2 C          61.5764   85.9012   10.4378 C.ar    1  UNL1        0.0369
      3 C          62.3661   86.6100   11.4980 C.ar    1  UNL1        0.0031
      4 C          62.5545   88.0963   11.4251 C.ar    1  UNL1        0.0002
      5 C          63.3441   88.8051   12.4853 C.ar    1  UNL1        0.0001
      6 C          63.5325   90.2914   12.4124 C.ar    1  UNL1        0.0027
      7 C          62.9313   91.0690   11.2792 C.ar    1  UNL1        0.0001
      8 C          62.1416   90.3602   10.2190 C.ar    1  UNL1        0.0001
      9 C          61.9532   88.8738   10.2920 C.ar    1  UNL1        0.0030
     10 C          61.1636   88.1649    9.2317 C.ar    1  UNL1        0.0369
     11 C          64.3221   91.0003   13.4726 C.ar    1  UNL1        0.0321
     12 C          65.4843   91.8674   13.0884 C.ar    1  UNL1        0.1001
     13 N          66.2739   92.5762   14.1486 N.ar    1  UNL1       -0.2422
     14 C          65.9014   92.4179   15.5930 C.ar    1  UNL1        0.1001
     15 C          64.7392   91.5508   15.9772 C.ar    1  UNL1        0.0348
     16 C          63.9496   90.8420   14.9169 C.ar    1  UNL1        0.0446
     17 N          62.7875   89.9749   15.3011 N.pl3   1  UNL1       -0.3569
     18 H          62.5430   89.8710   16.2490 H       1  UNL1        0.1424
     19 H          62.2693   89.5097   14.6052 H       1  UNL1        0.1424
     20 C          59.0258   86.6575    7.5874 C.3     1  UNL1        0.2525
     21 O          60.1856   85.9698    8.2444 O.3     1  UNL1       -0.4714
@<TRIPOS>BOND
     1    20    21    1
     2    21     1    1
     3     1     2   ar
     4     2     3   ar
     5     3     4   ar
     6     4     5   ar
     7     5     6   ar
     8     6    11    1
     9    11    12   ar
    10    12    13   ar
    11    13    14   ar
    12    14    15   ar
    13    15    16   ar
    14    16    17    1
    15     6     7   ar
    16     7     8   ar
    17     8     9   ar
    18     9    10   ar
    19    10     1   ar
    20     9     4   ar
    21    16    11   ar
    22    17    18    1
    23    17    19    1
@<TRIPOS>MOLECULE
*****
 21 23 0 0 0
SMALL
GASTEIGER

@<TRIPOS>ATOM
      1 C          61.5652   89.5417   10.6742 C.ar    1  UNL1        0.1387
      2 C          62.1705   90.7235    9.9764 C.ar    1  UNL1        0.0369
      3 C          63.3373   91.4397   10.5893 C.ar    1  UNL1        0.0031
      4 C          63.8988   90.9742   11.9000 C.ar    1  UNL1        0.0002
      5 C          65.0655   91.6905   12.5129 C.ar    1  UNL1        0.0001
      6 C          65.6270   91.2250   13.8236 C.ar    1  UNL1        0.0027
      7 C          65.0217   90.0432   14.5215 C.ar    1  UNL1        0.0001
      8 C          63.8550   89.3269   13.9086 C.ar    1  UNL1        0.0001
      9 C          63.2935   89.7925   12.5978 C.ar    1  UNL1        0.0030
     10 C          62.1267   89.0762   11.9849 C.ar    1  UNL1        0.0369
     11 C          66.7938   91.9413   14.4364 C.ar    1  UNL1        0.0321
     12 C          68.1274   91.9271   13.7498 C.ar    1  UNL1        0.1001
     13 N          69.2941   92.6434   14.3626 N.ar    1  UNL1       -0.2422
     14 C          69.1273   93.3738   15.6622 C.ar    1  UNL1        0.1001
     15 C          67.7938   93.3879   16.3488 C.ar    1  UNL1        0.0348
     16 C          66.6270   92.6716   15.7359 C.ar    1  UNL1        0.0446
     17 N          65.2935   92.6857   16.4225 N.pl3   1  UNL1       -0.3569
     18 H          65.1840   93.1651   17.2754 H       1  UNL1        0.1424
     19 H          64.5277   92.2156   16.0203 H       1  UNL1        0.1424
     20 C          60.1479   88.9255    8.5858 C.3     1  UNL1        0.2525
     21 O          60.3985   88.8254   10.0614 O.3     1  UNL1       -0.4714
@<TRIPOS>BOND
     1    20    21    1
     2    21     1    1
     3     1     2   ar
     4     2     3   ar
     5     3     4   ar
     6     4     5   ar
     7     5     6   ar
     8     6    11    1
     9    11    12   ar
    10    12    13   ar
    11    13    14   ar
    12    14    15   ar
    13    15    16   ar
    14    16    17    1
    15     6     7   ar
    16     7     8   ar
    17     8     9   ar
    18     9    10   ar
    19    10     1   ar
    20     9     4   ar
    21    16    11   ar
    22    17    18    1
    23    17    19    1
@<TRIPOS>MOLECULE
*****
 21 23 0 0 0
SMALL
GASTEIGER

@<TRIPOS>ATOM
      1 C          60.9485   86.7500    9.3921 C.ar    1  UNL1        0.1387
      2 C          61.5480   86.0163   10.5550 C.ar    1  UNL1        0.0369
      3 C          62.3628   86.7598   11.5715 C.ar    1  UNL1        0.0031
      4 C          62.5782   88.2370   11.4251 C.ar    1  UNL1        0.0002
      5 C          63.3930   88.9805   12.4417 C.ar    1  UNL1        0.0001
      6 C          63.6084   90.4577   12.2953 C.ar    1  UNL1        0.0027
      7 C          63.0089   91.1915   11.1324 C.ar    1  UNL1        0.0001
      8 C          62.1941   90.4480   10.1159 C.ar    1  UNL1        0.0001
      9 C          61.9788   88.9707   10.2623 C.ar    1  UNL1        0.0030
     10 C          61.1639   88.2272    9.2457 C.ar    1  UNL1        0.0369
     11 C          64.4232   91.2011   13.3118 C.ar    1  UNL1        0.0321
     12 C          64.1336   91.0325   14.7740 C.ar    1  UNL1        0.1001
     13 N          64.9484   91.7760   15.7905 N.ar    1  UNL1       -0.2422
     14 C          66.0528   92.6881   15.3449 C.ar    1  UNL1        0.1001
     15 C          66.3424   92.8566   13.8828 C.ar    1  UNL1        0.0348
     16 C          65.5276   92.1131   12.8663 C.ar    1  UNL1        0.0446
     17 N          65.8171   92.2817   11.4042 N.pl3   1  UNL1       -0.3569
     18 H          66.5419   92.8803   11.1118 H       1  UNL1        0.1424
     19 H          65.2823   91.7937   10.7371 H       1  UNL1        0.1424
     20 C          59.0194   86.7032    7.6525 C.3     1  UNL1        0.2525
     21 O          60.1337   86.0066    8.3756 O.3     1  UNL1       -0.4714
@<TRIPOS>BOND
     1    20    21    1
     2    21     1    1
     3     1     2   ar
     4     2     3   ar
     5     3     4   ar
     6     4     5   ar
     7     5     6   ar
     8     6    11    1
     9    11    12   ar
    10    12    13   ar
    11    13    14   ar
    12    14    15   ar
    13    15    16   ar
    14    16    17    1
    15     6     7   ar
    16     7     8   ar
    17     8     9   ar
    18     9    10   ar
    19    10     1   ar
    20     9     4   ar
    21    16    11   ar
    22    17    18    1
    23    17    19    1
@<TRIPOS>MOLECULE
*****
 21 23 0 0 0
SMALL
GASTEIGER

@<TRIPOS>ATOM
      1 C          61.6396   89.8186   10.1351 C.ar    1  UNL1        0.1387
      2 C          61.6276   89.0806   11.4409 C.ar    1  UNL1        0.0369
      3 C          62.6284   89.4223   12.5047 C.ar    1  UNL1        0.0031
      4 C          63.6412   90.5019   12.2627 C.ar    1  UNL1        0.0002
      5 C          64.6420   90.8435   13.3265 C.ar    1  UNL1        0.0001
      6 C          65.6548   91.9232   13.0845 C.ar    1  UNL1        0.0027
      7 C          65.6668   92.6612   11.7786 C.ar    1  UNL1        0.0001
      8 C          64.6660   92.3196   10.7148 C.ar    1  UNL1        0.0001
      9 C          63.6532   91.2399   10.9569 C.ar    1  UNL1        0.0030
     10 C          62.6524   90.8983    9.8931 C.ar    1  UNL1        0.0369
     11 C          66.6556   92.2648   14.1483 C.ar    1  UNL1        0.0321
     12 C          66.1897   92.7652   15.4834 C.ar    1  UNL1        0.1001
     13 N          67.1905   93.1069   16.5472 N.ar    1  UNL1       -0.2422
     14 C          68.6573   92.9480   16.2759 C.ar    1  UNL1        0.1001
     15 C          69.1231   92.4476   14.9408 C.ar    1  UNL1        0.0348
     16 C          68.1223   92.1060   13.8770 C.ar    1  UNL1        0.0446
     17 N          68.5881   91.6055   12.5419 N.pl3   1  UNL1       -0.3569
     18 H          69.5508   91.5013   12.3638 H       1  UNL1        0.1424
     19 H          67.9312   91.3813   11.8437 H       1  UNL1        0.1424
     20 C          60.1637   88.0629    8.9149 C.3     1  UNL1        0.2525
     21 O          60.6388   89.4770    9.0713 O.3     1  UNL1       -0.4714
@<TRIPOS>BOND
     1    20    21    1
     2    21     1    1
     3     1     2   ar
     4     2     3   ar
     5     3     4   ar
     6     4     5   ar
     7     5     6   ar
     8     6    11    1
     9    11    12   ar
    10    12    13   ar
    11    13    14   ar
    12    14    15   ar
    13    15    16   ar
    14    16    17    1
    15     6     7   ar
    16     7     8   ar
    17     8     9   ar
    18     9    10   ar
    19    10     1   ar
    20     9     4   ar
    21    16    11   ar
    22    17    18    1
    23    17    19    1
@<TRIPOS>MOLECULE
*****
 21 23 0 0 0
SMALL
GASTEIGER

@<TRIPOS>ATOM
      1 C          59.5804   88.8243    7.7293 C.ar    1  UNL1        0.1387
      2 C          59.2589   87.4022    7.3770 C.ar    1  UNL1        0.0369
      3 C          59.8578   86.2791    8.1706 C.ar    1  UNL1        0.0031
      4 C          60.7783   86.5780    9.3166 C.ar    1  UNL1        0.0002
      5 C          61.3772   85.4549   10.1102 C.ar    1  UNL1        0.0001
      6 C          62.2977   85.7538   11.2562 C.ar    1  UNL1        0.0027
      7 C          62.6193   87.1760   11.6086 C.ar    1  UNL1        0.0001
      8 C          62.0204   88.2991   10.8149 C.ar    1  UNL1        0.0001
      9 C          61.0999   88.0001    9.6689 C.ar    1  UNL1        0.0030
     10 C          60.5009   89.1233    8.8753 C.ar    1  UNL1        0.0369
     11 C          62.8966   84.6307   12.0498 C.ar    1  UNL1        0.0321
     12 C          62.6967   84.5721   13.5353 C.ar    1  UNL1        0.1001
     13 N          63.2957   83.4490   14.3289 N.ar    1  UNL1       -0.2422
     14 C          64.0945   82.3844   13.6371 C.ar    1  UNL1        0.1001
     15 C          64.2944   82.4430   12.1516 C.ar    1  UNL1        0.0348
     16 C          63.6954   83.5662   11.3580 C.ar    1  UNL1        0.0446
     17 N          63.8953   83.6248    9.8726 N.pl3   1  UNL1       -0.3569
     18 H          64.4196   82.9261    9.4185 H       1  UNL1        0.1424
     19 H          63.5022   84.3619    9.3517 H       1  UNL1        0.1424
     20 C          59.5721   90.3275    5.6103 C.3     1  UNL1        0.2525
     21 O          58.9815   89.9474    6.9357 O.3     1  UNL1       -0.4714
@<TRIPOS>BOND
     1    20    21    1
     2    21     1    1
     3     1     2   ar
     4     2     3   ar
     5     3     4   ar
     6     4     5   ar
     7     5     6   ar
     8     6    11    1
     9    11    12   ar
    10    12    13   ar
    11    13    14   ar
    12    14    15   ar
    13    15    16   ar
    14    16    17    1
    15     6     7   ar
    16     7     8   ar
    17     8     9   ar
    18     9    10   ar
    19    10     1   ar
    20     9     4   ar
    21    16    11   ar
    22    17    18    1
    23    17    19    1
