@<TRIPOS>MOLECULE
*****
 14 15 0 0 0
SMALL
GASTEIGER

@<TRIPOS>ATOM
      1 C          67.6753   94.3307    9.1487 C.ar    1  UNL1        0.0751
      2 C          68.3472   93.0067    8.9350 C.ar    1  UNL1        0.0215
      3 C          67.9442   92.0961   10.0568 C.ar    1  UNL1        0.0084
      4 C          67.0234   92.8574   10.9638 C.ar    1  UNL1        0.0322
      5 S          66.8572   94.2384   10.4025 S.2     1  UNL1       -0.0725
      6 C          66.3815   92.3301   12.2128 C.ar    1  UNL1        0.0252
      7 C          67.2248   92.0058   13.4101 C.ar    1  UNL1        0.0036
      8 C          66.5829   91.4786   14.6590 C.ar    1  UNL1        0.0207
      9 C          65.0976   91.2755   14.7107 C.ar    1  UNL1        0.0989
     10 N          64.2542   91.5997   13.5134 N.ar    1  UNL1       -0.2423
     11 C          64.8962   92.1270   12.2644 C.ar    1  UNL1        0.0993
     12 C          67.2433   96.8549    8.7106 C.3     1  UNL1        0.1089
     13 N          67.7997   95.5355    8.2638 N.pl3   1  UNL1       -0.3263
     14 H          68.2466   95.4603    7.3898 H       1  UNL1        0.1473
@<TRIPOS>BOND
     1    12    13    1
     2    13     1    1
     3     1     2   ar
     4     2     3   ar
     5     3     4   ar
     6     4     6    1
     7     6     7   ar
     8     7     8   ar
     9     8     9   ar
    10     9    10   ar
    11    10    11   ar
    12     4     5   ar
    13     5     1   ar
    14    11     6   ar
    15    13    14    1
@<TRIPOS>MOLECULE
*****
 14 15 0 0 0
SMALL
GASTEIGER

@<TRIPOS>ATOM
      1 C          62.9205   90.5164   12.5527 C.ar    1  UNL1        0.0751
      2 C          63.4797   91.2053   11.3433 C.ar    1  UNL1        0.0215
      3 C          64.7820   91.8399   11.7321 C.ar    1  UNL1        0.0084
      4 C          65.0277   91.5432   13.1818 C.ar    1  UNL1        0.0322
      5 S          63.8772   90.7252   13.6889 S.2     1  UNL1       -0.0725
      6 C          66.2154   91.9866   13.9836 C.ar    1  UNL1        0.0252
      7 C          66.0422   92.3989   15.4154 C.ar    1  UNL1        0.0036
      8 C          67.2299   92.8423   16.2171 C.ar    1  UNL1        0.0207
      9 C          68.5908   92.8734   15.5870 C.ar    1  UNL1        0.0989
     10 N          68.7640   92.4611   14.1553 N.ar    1  UNL1       -0.2423
     11 C          67.5763   92.0177   13.3536 C.ar    1  UNL1        0.0993
     12 C          60.6207   89.8959   11.5154 C.3     1  UNL1        0.1089
     13 N          61.6309   89.7527   12.6149 N.pl3   1  UNL1       -0.3263
     14 H          61.4476   89.1574   13.3774 H       1  UNL1        0.1473
@<TRIPOS>BOND
     1    12    13    1
     2    13     1    1
     3     1     2   ar
     4     2     3   ar
     5     3     4   ar
     6     4     6    1
     7     6     7   ar
     8     7     8   ar
     9     8     9   ar
    10     9    10   ar
    11    10    11   ar
    12     4     5   ar
    13     5     1   ar
    14    11     6   ar
    15    13    14    1
@<TRIPOS>MOLECULE
*****
 14 15 0 0 0
SMALL
GASTEIGER

@<TRIPOS>ATOM
      1 C          60.6643   88.5257    9.5578 C.ar    1  UNL1        0.0751
      2 C          60.1400   87.5875    8.5114 C.ar    1  UNL1        0.0215
      3 C          60.7743   86.2462    8.7318 C.ar    1  UNL1        0.0084
      4 C          61.6906   86.3555    9.9144 C.ar    1  UNL1        0.0322
      5 S          61.6226   87.7643   10.4249 S.2     1  UNL1       -0.0725
      6 C          62.5280   85.2500   10.4862 C.ar    1  UNL1        0.0252
      7 C          63.3130   84.3550    9.5737 C.ar    1  UNL1        0.0036
      8 C          64.1502   83.2495   10.1454 C.ar    1  UNL1        0.0207
      9 C          64.2025   83.0391   11.6297 C.ar    1  UNL1        0.0989
     10 N          63.4175   83.9341   12.5422 N.ar    1  UNL1       -0.2423
     11 C          62.5802   85.0396   11.9704 C.ar    1  UNL1        0.0993
     12 C          59.8692   90.4998   11.0481 C.3     1  UNL1        0.1089
     13 N          60.2950   89.9716    9.7103 N.pl3   1  UNL1       -0.3263
     14 H          60.3321   90.5738    8.9324 H       1  UNL1        0.1473
@<TRIPOS>BOND
     1    12    13    1
     2    13     1    1
     3     1     2   ar
     4     2     3   ar
     5     3     4   ar
     6     4     6    1
     7     6     7   ar
     8     7     8   ar
     9     8     9   ar
    10     9    10   ar
    11    10    11   ar
    12     4     5   ar
    13     5     1   ar
    14    11     6   ar
    15    13    14    1
@<TRIPOS>MOLECULE
*****
 14 15 0 0 0
SMALL
GASTEIGER

@<TRIPOS>ATOM
      1 C          63.2995   84.0775   11.6232 C.ar    1  UNL1        0.0751
      2 C          63.8390   83.7121   10.2720 C.ar    1  UNL1        0.0215
      3 C          63.1968   84.6116    9.2579 C.ar    1  UNL1        0.0084
      4 C          62.2605   85.5329    9.9822 C.ar    1  UNL1        0.0322
      5 S          62.3240   85.2027   11.4440 S.2     1  UNL1       -0.0725
      6 C          61.4100   86.5974    9.3548 C.ar    1  UNL1        0.0252
      7 C          60.3588   86.2235    8.3523 C.ar    1  UNL1        0.0036
      8 C          59.5083   87.2880    7.7250 C.ar    1  UNL1        0.0207
      9 C          59.7091   88.7263    8.1002 C.ar    1  UNL1        0.0989
     10 N          60.7603   89.1002    9.1027 N.ar    1  UNL1       -0.2423
     11 C          61.6107   88.0357    9.7300 C.ar    1  UNL1        0.0993
     12 C          64.6436   84.1047   13.8464 C.3     1  UNL1        0.1089
     13 N          63.6705   83.4310   12.9249 N.pl3   1  UNL1       -0.3263
     14 H          63.2753   82.5645   13.1745 H       1  UNL1        0.1473
@<TRIPOS>BOND
     1    12    13    1
     2    13     1    1
     3     1     2   ar
     4     2     3   ar
     5     3     4   ar
     6     4     6    1
     7     6     7   ar
     8     7     8   ar
     9     8     9   ar
    10     9    10   ar
    11    10    11   ar
    12     4     5   ar
    13     5     1   ar
    14    11     6   ar
    15    13    14    1
@<TRIPOS>MOLECULE
*****
 14 15 0 0 0
SMALL
GASTEIGER

@<TRIPOS>ATOM
      1 C          61.3813   86.4364    9.1527 C.ar    1  UNL1        0.0751
      2 C          62.4567   85.6980    8.4121 C.ar    1  UNL1        0.0215
      3 C          63.1576   84.7993    9.3873 C.ar    1  UNL1        0.0084
      4 C          62.5155   84.9823   10.7305 C.ar    1  UNL1        0.0322
      5 S          61.4177   85.9941   10.5855 S.2     1  UNL1       -0.0725
      6 C          62.9033   84.2773   11.9965 C.ar    1  UNL1        0.0252
      7 C          62.7584   82.7879   12.1001 C.ar    1  UNL1        0.0036
      8 C          63.1461   82.0830   13.3661 C.ar    1  UNL1        0.0207
      9 C          63.6787   82.8674   14.5284 C.ar    1  UNL1        0.0989
     10 N          63.8236   84.3567   14.4248 N.ar    1  UNL1       -0.2423
     11 C          63.4359   85.0617   13.1589 C.ar    1  UNL1        0.0993
     12 C          59.1425   86.9861    7.9544 C.3     1  UNL1        0.1089
     13 N          60.4356   87.4408    8.5637 N.pl3   1  UNL1       -0.3263
     14 H          60.6635   88.3985    8.5771 H       1  UNL1        0.1473
@<TRIPOS>BOND
     1    12    13    1
     2    13     1    1
     3     1     2   ar
     4     2     3   ar
     5     3     4   ar
     6     4     6    1
     7     6     7   ar
     8     7     8   ar
     9     8     9   ar
    10     9    10   ar
    11    10    11   ar
    12     4     5   ar
    13     5     1   ar
    14    11     6   ar
    15    13    14    1
@<TRIPOS>MOLECULE
*****
 14 15 0 0 0
SMALL
GASTEIGER

@<TRIPOS>ATOM
      1 C          63.6983   82.3297   12.0889 C.ar    1  UNL1        0.0751
      2 C          64.4034   82.3875   10.7662 C.ar    1  UNL1        0.0215
      3 C          63.8962   83.5875   10.0227 C.ar    1  UNL1        0.0084
      4 C          62.8778   84.2713   10.8859 C.ar    1  UNL1        0.0322
      5 S          62.7554   83.4940   12.1629 S.2     1  UNL1       -0.0725
      6 C          62.1154   85.5144   10.5339 C.ar    1  UNL1        0.0252
      7 C          62.0335   85.9646    9.1054 C.ar    1  UNL1        0.0036
      8 C          61.2712   87.2076    8.7535 C.ar    1  UNL1        0.0207
      9 C          60.5909   88.0003    9.8300 C.ar    1  UNL1        0.0989
     10 N          60.6728   87.5500   11.2584 N.ar    1  UNL1       -0.2423
     11 C          61.4351   86.3070   11.6104 C.ar    1  UNL1        0.0993
     12 C          62.7211   80.5550   13.7154 C.3     1  UNL1        0.1089
     13 N          63.9006   81.2901   13.1512 N.pl3   1  UNL1       -0.3263
     14 H          64.8075   81.0903   13.4780 H       1  UNL1        0.1473
@<TRIPOS>BOND
     1    12    13    1
     2    13     1    1
     3     1     2   ar
     4     2     3   ar
     5     3     4   ar
     6     4     6    1
     7     6     7   ar
     8     7     8   ar
     9     8     9   ar
    10     9    10   ar
    11    10    11   ar
    12     4     5   ar
    13     5     1   ar
    14    11     6   ar
    15    13    14    1
@<TRIPOS>MOLECULE
*****
 14 15 0 0 0
SMALL
GASTEIGER

@<TRIPOS>ATOM
      1 C          62.1000   88.9035   11.3496 C.ar    1  UNL1        0.0751
      2 C          62.0882   89.7708   10.1257 C.ar    1  UNL1        0.0215
      3 C          63.0124   90.9270   10.3681 C.ar    1  UNL1        0.0084
      4 C          63.5954   90.7744   11.7417 C.ar    1  UNL1        0.0322
      5 S          63.0315   89.5238   12.3483 S.2     1  UNL1       -0.0725
      6 C          64.5711   91.7085   12.3942 C.ar    1  UNL1        0.0252
      7 C          65.2865   92.7396   11.5726 C.ar    1  UNL1        0.0036
      8 C          66.2621   93.6736   12.2251 C.ar    1  UNL1        0.0207
      9 C          66.5223   93.5765   13.6992 C.ar    1  UNL1        0.0989
     10 N          65.8069   92.5454   14.5208 N.ar    1  UNL1       -0.2423
     11 C          64.8313   91.6114   13.8683 C.ar    1  UNL1        0.0993
     12 C          61.0463   86.7397   10.3709 C.3     1  UNL1        0.1089
     13 N          61.3176   87.6381   11.5410 N.pl3   1  UNL1       -0.3263
     14 H          60.9822   87.3972   12.4347 H       1  UNL1        0.1473
@<TRIPOS>BOND
     1    12    13    1
     2    13     1    1
     3     1     2   ar
     4     2     3   ar
     5     3     4   ar
     6     4     6    1
     7     6     7   ar
     8     7     8   ar
     9     8     9   ar
    10     9    10   ar
    11    10    11   ar
    12     4     5   ar
    13     5     1   ar
    14    11     6   ar
    15    13    14    1
@<TRIPOS>MOLECULE
*****
 14 15 0 0 0
SMALL
GASTEIGER

@<TRIPOS>ATOM
      1 C          63.9781   84.0672   14.1102 C.ar    1  UNL1        0.0751
      2 C          64.1409   82.7508   13.4096 C.ar    1  UNL1        0.0215
      3 C          63.6437   82.9095   12.0034 C.ar    1  UNL1        0.0084
      4 C          63.1737   84.3240   11.8348 C.ar    1  UNL1        0.0322
      5 S          63.3804   85.0395   13.1369 S.2     1  UNL1       -0.0725
      6 C          62.5980   84.9186   10.5837 C.ar    1  UNL1        0.0252
      7 C          63.2366   84.6359    9.2562 C.ar    1  UNL1        0.0036
      8 C          62.6609   85.2305    8.0053 C.ar    1  UNL1        0.0207
      9 C          61.4467   86.1078    8.0817 C.ar    1  UNL1        0.0989
     10 N          60.8081   86.3906    9.4092 N.ar    1  UNL1       -0.2423
     11 C          61.3837   85.7960   10.6602 C.ar    1  UNL1        0.0993
     12 C          63.8653   85.6190   16.1909 C.3     1  UNL1        0.1089
     13 N          64.3482   84.3599   15.5341 N.pl3   1  UNL1       -0.3263
     14 H          64.9081   83.7256   16.0375 H       1  UNL1        0.1473
@<TRIPOS>BOND
     1    12    13    1
     2    13     1    1
     3     1     2   ar
     4     2     3   ar
     5     3     4   ar
     6     4     6    1
     7     6     7   ar
     8     7     8   ar
     9     8     9   ar
    10     9    10   ar
    11    10    11   ar
    12     4     5   ar
    13     5     1   ar
    14    11     6   ar
    15    13    14    1
@<TRIPOS>MOLECULE
*****
 14 15 0 0 0
SMALL
GASTEIGER

@<TRIPOS>ATOM
      1 C          62.2947   90.0838   10.6628 C.ar    1  UNL1        0.0751
      2 C          62.4382   89.0199   11.7105 C.ar    1  UNL1        0.0215
      3 C          63.4525   89.4887   12.7111 C.ar    1  UNL1        0.0084
      4 C          63.9359   90.8422   12.2819 C.ar    1  UNL1        0.0322
      5 S          63.2204   91.2100   11.0160 S.2     1  UNL1       -0.0725
      6 C          64.9559   91.6807   12.9938 C.ar    1  UNL1        0.0252
      7 C          65.3695   91.3317   14.3927 C.ar    1  UNL1        0.0036
      8 C          66.3894   92.1702   15.1045 C.ar    1  UNL1        0.0207
      9 C          66.9957   93.3577   14.4173 C.ar    1  UNL1        0.0989
     10 N          66.5821   93.7068   13.0183 N.ar    1  UNL1       -0.2423
     11 C          65.5622   92.8683   12.3066 C.ar    1  UNL1        0.0993
     12 C          60.6029   88.7846    9.1796 C.3     1  UNL1        0.1089
     13 N          61.3852   90.0308    9.4711 N.pl3   1  UNL1       -0.3263
     14 H          61.3018   90.8139    8.8803 H       1  UNL1        0.1473
@<TRIPOS>BOND
     1    12    13    1
     2    13     1    1
     3     1     2   ar
     4     2     3   ar
     5     3     4   ar
     6     4     6    1
     7     6     7   ar
     8     7     8   ar
     9     8     9   ar
    10     9    10   ar
    11    10    11   ar
    12     4     5   ar
    13     5     1   ar
    14    11     6   ar
    15    13    14    1
