@<TRIPOS>MOLECULE
*****
 25 28 0 0 0
SMALL
GASTEIGER

@<TRIPOS>ATOM
      1 N          65.8598   93.1787   10.0876 N.pl3   1  UNL1       -0.3441
      2 C          65.0223   92.3543   11.0199 C.ar    1  UNL1        0.1035
      3 C          63.8934   91.5268   10.4808 C.ar    1  UNL1        0.0297
      4 C          63.0560   90.7024   11.4131 C.ar    1  UNL1        0.0090
      5 C          63.3476   90.7055   12.8844 C.ar    1  UNL1        0.1366
      6 N          62.6990   89.9988   14.0377 N.ar    1  UNL1       -0.1258
      7 N          63.4271   90.3896   15.2895 N.ar    1  UNL1       -0.0406
      8 N          64.5257   91.3378   14.9100 N.ar    1  UNL1       -0.1095
      9 C          64.4765   91.5331   13.4235 C.ar    1  UNL1        0.1838
     10 N          65.3139   92.3574   12.4913 N.ar    1  UNL1       -0.3249
     11 H          65.6685   93.1767    9.1219 H       1  UNL1        0.1437
     12 H          66.6008   93.7219   10.4415 H       1  UNL1        0.1437
     13 H          66.0549   92.9006   12.8451 H       1  UNL1        0.1686
     14 C          61.9270   89.8749   10.8739 C.3     1  UNL1        0.0757
     15 C          62.0707   88.3852   10.7727 C.ar    1  UNL1        0.0850
     16 C          61.9772   87.5738    9.5146 C.ar    1  UNL1        0.0375
     17 C          62.1818   86.1326    9.8763 C.ar    1  UNL1        0.1033
     18 N          62.4018   86.0532   11.3579 N.ar    1  UNL1       -0.2110
     19 N          62.3331   87.4454   11.9120 N.ar    1  UNL1       -0.1678
     20 C          62.6474   84.8014   12.1471 C.ar    1  UNL1        0.1638
     21 C          63.0810   83.5471   11.4481 C.ar    1  UNL1        0.0388
     22 C          63.3266   82.2952   12.2372 C.ar    1  UNL1        0.0047
     23 C          63.1386   82.2979   13.7255 C.ar    1  UNL1        0.0208
     24 C          62.7050   83.5523   14.4244 C.ar    1  UNL1        0.1006
     25 N          62.4594   84.8040   13.6352 N.ar    1  UNL1       -0.2250
@<TRIPOS>BOND
     1     1     2    1
     2     2     3   ar
     3     3     4   ar
     4     4    14    1
     5    14    15    1
     6    15    16   ar
     7    16    17   ar
     8    17    18   ar
     9    18    20    1
    10    20    21   ar
    11    21    22   ar
    12    22    23   ar
    13    23    24   ar
    14    24    25   ar
    15    18    19   ar
    16     4     5   ar
    17     5     6   ar
    18     6     7   ar
    19     7     8   ar
    20     8     9   ar
    21     9    10   ar
    22    10     2   ar
    23    19    15   ar
    24     9     5    1
    25    25    20   ar
    26     1    11    1
    27     1    12    1
    28    10    13    1
@<TRIPOS>MOLECULE
*****
 25 28 0 0 0
SMALL
GASTEIGER

@<TRIPOS>ATOM
      1 N          66.6799   92.9194   16.4591 N.pl3   1  UNL1       -0.3441
      2 C          66.2398   92.7143   15.0397 C.ar    1  UNL1        0.1035
      3 C          65.1884   91.6934   14.7206 C.ar    1  UNL1        0.0297
      4 C          64.7483   91.4884   13.3012 C.ar    1  UNL1        0.0090
      5 C          65.3598   92.3044   12.2012 C.ar    1  UNL1        0.1366
      6 N          65.1290   92.3244   10.7192 N.ar    1  UNL1       -0.1258
      7 N          66.0379   93.3578   10.1225 N.ar    1  UNL1       -0.0406
      8 N          66.8304   93.9764   11.2357 N.ar    1  UNL1       -0.1095
      9 C          66.4113   93.3254   12.5204 C.ar    1  UNL1        0.1838
     10 N          66.8513   93.5304   13.9397 N.ar    1  UNL1       -0.3249
     11 H          66.2786   92.3838   17.1811 H       1  UNL1        0.1437
     12 H          67.3700   93.5895   16.6685 H       1  UNL1        0.1437
     13 H          67.5415   94.2005   14.1492 H       1  UNL1        0.1686
     14 C          63.6968   90.4673   12.9821 C.3     1  UNL1        0.0757
     15 C          63.8450   89.0586   13.4754 C.ar    1  UNL1        0.0850
     16 C          64.3977   88.6443   14.8069 C.ar    1  UNL1        0.0375
     17 C          64.3609   87.1465   14.8783 C.ar    1  UNL1        0.1033
     18 N          63.7855   86.6350   13.5909 N.ar    1  UNL1       -0.2110
     19 N          63.4667   87.8168   12.7239 N.ar    1  UNL1       -0.1678
     20 C          63.5672   85.1947   13.2333 C.ar    1  UNL1        0.1638
     21 C          62.8110   84.8374   11.9882 C.ar    1  UNL1        0.0388
     22 C          62.5926   83.3971   11.6305 C.ar    1  UNL1        0.0047
     23 C          63.1307   82.3141   12.5181 C.ar    1  UNL1        0.0208
     24 C          63.8869   82.6714   13.7632 C.ar    1  UNL1        0.1006
     25 N          64.1052   84.1117   14.1208 N.ar    1  UNL1       -0.2250
@<TRIPOS>BOND
     1     1     2    1
     2     2     3   ar
     3     3     4   ar
     4     4    14    1
     5    14    15    1
     6    15    16   ar
     7    16    17   ar
     8    17    18   ar
     9    18    20    1
    10    20    21   ar
    11    21    22   ar
    12    22    23   ar
    13    23    24   ar
    14    24    25   ar
    15    18    19   ar
    16     4     5   ar
    17     5     6   ar
    18     6     7   ar
    19     7     8   ar
    20     8     9   ar
    21     9    10   ar
    22    10     2   ar
    23    19    15   ar
    24     9     5    1
    25    25    20   ar
    26     1    11    1
    27     1    12    1
    28    10    13    1
@<TRIPOS>MOLECULE
*****
 25 28 0 0 0
SMALL
GASTEIGER

@<TRIPOS>ATOM
      1 N          62.7821   85.5522   12.2721 N.pl3   1  UNL1       -0.3441
      2 C          62.0783   86.4829   11.3295 C.ar    1  UNL1        0.1035
      3 C          62.1722   87.9663   11.5304 C.ar    1  UNL1        0.0297
      4 C          61.4683   88.8970   10.5878 C.ar    1  UNL1        0.0090
      5 C          60.6705   88.3441    9.4442 C.ar    1  UNL1        0.1366
      6 N          59.8750   89.0099    8.3608 N.ar    1  UNL1       -0.1258
      7 N          59.2894   87.9379    7.4903 N.ar    1  UNL1       -0.0406
      8 N          59.7230   86.6095    8.0357 N.ar    1  UNL1       -0.1095
      9 C          60.5766   86.8605    9.2433 C.ar    1  UNL1        0.1838
     10 N          61.2805   85.9299   10.1859 N.ar    1  UNL1       -0.3249
     11 H          63.3058   85.9150   13.0227 H       1  UNL1        0.1437
     12 H          62.7205   84.5785   12.1402 H       1  UNL1        0.1437
     13 H          61.2188   84.9563   10.0540 H       1  UNL1        0.1686
     14 C          61.5623   90.3805   10.7888 C.3     1  UNL1        0.0757
     15 C          62.8710   91.0036   11.1747 C.ar    1  UNL1        0.0850
     16 C          63.8197   91.7065   10.2495 C.ar    1  UNL1        0.0375
     17 C          64.9958   92.1705   11.0565 C.ar    1  UNL1        0.1033
     18 N          64.7741   91.7545   12.4805 N.ar    1  UNL1       -0.2110
     19 N          63.4609   91.0333   12.5535 N.ar    1  UNL1       -0.1678
     20 C          65.7025   92.0141   13.6298 C.ar    1  UNL1        0.1638
     21 C          67.1863   92.0135   13.4102 C.ar    1  UNL1        0.0388
     22 C          68.1147   92.2730   14.5594 C.ar    1  UNL1        0.0047
     23 C          67.5592   92.5331   15.9283 C.ar    1  UNL1        0.0208
     24 C          66.0753   92.5337   16.1479 C.ar    1  UNL1        0.1006
     25 N          65.1470   92.2742   14.9986 N.ar    1  UNL1       -0.2250
@<TRIPOS>BOND
     1     1     2    1
     2     2     3   ar
     3     3     4   ar
     4     4    14    1
     5    14    15    1
     6    15    16   ar
     7    16    17   ar
     8    17    18   ar
     9    18    20    1
    10    20    21   ar
    11    21    22   ar
    12    22    23   ar
    13    23    24   ar
    14    24    25   ar
    15    18    19   ar
    16     4     5   ar
    17     5     6   ar
    18     6     7   ar
    19     7     8   ar
    20     8     9   ar
    21     9    10   ar
    22    10     2   ar
    23    19    15   ar
    24     9     5    1
    25    25    20   ar
    26     1    11    1
    27     1    12    1
    28    10    13    1
@<TRIPOS>MOLECULE
*****
 25 28 0 0 0
SMALL
GASTEIGER

@<TRIPOS>ATOM
      1 N          64.7337   85.0082   15.6191 N.pl3   1  UNL1       -0.3441
      2 C          64.2514   83.9917   14.6268 C.ar    1  UNL1        0.1035
      3 C          64.2333   84.3217   13.1638 C.ar    1  UNL1        0.0297
      4 C          63.7510   83.3053   12.1716 C.ar    1  UNL1        0.0090
      5 C          63.2869   81.9589   12.6426 C.ar    1  UNL1        0.1366
      6 N          62.7617   80.7635   11.9043 N.ar    1  UNL1       -0.1258
      7 N          62.4552   79.6947   12.9112 N.ar    1  UNL1       -0.0406
      8 N          62.7910   80.2296   14.2718 N.ar    1  UNL1       -0.1095
      9 C          63.3050   81.6290   14.1058 C.ar    1  UNL1        0.1838
     10 N          63.7873   82.6454   15.0979 N.ar    1  UNL1       -0.3249
     11 H          65.0383   85.8918   15.3100 H       1  UNL1        0.1437
     12 H          64.7456   84.7916   16.5794 H       1  UNL1        0.1437
     13 H          63.7992   82.4288   16.0582 H       1  UNL1        0.1686
     14 C          63.7329   83.6353   10.7084 C.3     1  UNL1        0.0757
     15 C          63.0171   84.8616   10.2250 C.ar    1  UNL1        0.0850
     16 C          62.8858   85.3004    8.7966 C.ar    1  UNL1        0.0375
     17 C          62.0945   86.5744    8.7740 C.ar    1  UNL1        0.1033
     18 N          61.7368   86.9232   10.1883 N.ar    1  UNL1       -0.2110
     19 N          62.3070   85.8645   11.0851 N.ar    1  UNL1       -0.1678
     20 C          60.9474   88.1203   10.6287 C.ar    1  UNL1        0.1638
     21 C          61.0365   89.4030    9.8563 C.ar    1  UNL1        0.0388
     22 C          60.2472   90.6001   10.2966 C.ar    1  UNL1        0.0047
     23 C          59.3686   90.5144   11.5095 C.ar    1  UNL1        0.0208
     24 C          59.2795   89.2316   12.2819 C.ar    1  UNL1        0.1006
     25 N          60.0689   88.0346   11.8415 N.ar    1  UNL1       -0.2250
@<TRIPOS>BOND
     1     1     2    1
     2     2     3   ar
     3     3     4   ar
     4     4    14    1
     5    14    15    1
     6    15    16   ar
     7    16    17   ar
     8    17    18   ar
     9    18    20    1
    10    20    21   ar
    11    21    22   ar
    12    22    23   ar
    13    23    24   ar
    14    24    25   ar
    15    18    19   ar
    16     4     5   ar
    17     5     6   ar
    18     6     7   ar
    19     7     8   ar
    20     8     9   ar
    21     9    10   ar
    22    10     2   ar
    23    19    15   ar
    24     9     5    1
    25    25    20   ar
    26     1    11    1
    27     1    12    1
    28    10    13    1
@<TRIPOS>MOLECULE
*****
 25 28 0 0 0
SMALL
GASTEIGER

@<TRIPOS>ATOM
      1 N          59.1664   88.6482    7.1025 N.pl3   1  UNL1       -0.3441
      2 C          59.9596   88.3173    8.3319 C.ar    1  UNL1        0.1035
      3 C          60.1957   89.3668    9.3771 C.ar    1  UNL1        0.0297
      4 C          60.9889   89.0360   10.6066 C.ar    1  UNL1        0.0090
      5 C          61.5459   87.6555   10.7907 C.ar    1  UNL1        0.1366
      6 N          62.3602   87.0401   11.8899 N.ar    1  UNL1       -0.1258
      7 N          62.6274   85.6102   11.5239 N.ar    1  UNL1       -0.0406
      8 N          61.9782   85.3418   10.1986 N.ar    1  UNL1       -0.1095
      9 C          61.3098   86.6059    9.7454 C.ar    1  UNL1        0.1838
     10 N          60.5166   86.9368    8.5160 N.ar    1  UNL1       -0.3249
     11 H          58.8008   89.5542    6.9816 H       1  UNL1        0.1437
     12 H          59.0115   87.9593    6.4164 H       1  UNL1        0.1437
     13 H          60.3616   86.2479    7.8300 H       1  UNL1        0.1686
     14 C          61.2250   90.0857   11.6518 C.3     1  UNL1        0.0757
     15 C          62.5792   90.7158   11.7895 C.ar    1  UNL1        0.0850
     16 C          63.4056   91.2825   10.6732 C.ar    1  UNL1        0.0375
     17 C          64.6819   91.8068   11.2614 C.ar    1  UNL1        0.1033
     18 N          64.6444   91.5642   12.7412 N.ar    1  UNL1       -0.2110
     19 N          63.3448   90.8899   13.0675 N.ar    1  UNL1       -0.1678
     20 C          65.7180   91.9313   13.7224 C.ar    1  UNL1        0.1638
     21 C          67.1561   91.9289   13.2965 C.ar    1  UNL1        0.0388
     22 C          68.2297   92.2960   14.2776 C.ar    1  UNL1        0.0047
     23 C          67.8649   92.6656   15.6849 C.ar    1  UNL1        0.0208
     24 C          66.4266   92.6680   16.1109 C.ar    1  UNL1        0.1006
     25 N          65.3532   92.3009   15.1297 N.ar    1  UNL1       -0.2250
@<TRIPOS>BOND
     1     1     2    1
     2     2     3   ar
     3     3     4   ar
     4     4    14    1
     5    14    15    1
     6    15    16   ar
     7    16    17   ar
     8    17    18   ar
     9    18    20    1
    10    20    21   ar
    11    21    22   ar
    12    22    23   ar
    13    23    24   ar
    14    24    25   ar
    15    18    19   ar
    16     4     5   ar
    17     5     6   ar
    18     6     7   ar
    19     7     8   ar
    20     8     9   ar
    21     9    10   ar
    22    10     2   ar
    23    19    15   ar
    24     9     5    1
    25    25    20   ar
    26     1    11    1
    27     1    12    1
    28    10    13    1
@<TRIPOS>MOLECULE
*****
 25 28 0 0 0
SMALL
GASTEIGER

@<TRIPOS>ATOM
      1 N          64.6783   85.2903   15.3467 N.pl3   1  UNL1       -0.3441
      2 C          64.2137   86.4211   14.4774 C.ar    1  UNL1        0.1035
      3 C          64.4444   87.8400   14.9056 C.ar    1  UNL1        0.0297
      4 C          63.9797   88.9708   14.0363 C.ar    1  UNL1        0.0090
      5 C          63.2844   88.6825   12.7389 C.ar    1  UNL1        0.1366
      6 N          62.7187   89.5835   11.6815 N.ar    1  UNL1       -0.1258
      7 N          62.1384   88.7214   10.5998 N.ar    1  UNL1       -0.0406
      8 N          62.3454   87.2876   10.9887 N.ar    1  UNL1       -0.1095
      9 C          63.0536   87.2635   12.3107 C.ar    1  UNL1        0.1838
     10 N          63.5183   86.1328   13.1800 N.ar    1  UNL1       -0.3249
     11 H          65.1347   85.4795   16.1983 H       1  UNL1        0.1437
     12 H          64.5268   84.3590   15.0657 H       1  UNL1        0.1437
     13 H          63.3669   85.2015   12.8990 H       1  UNL1        0.1686
     14 C          64.2105   90.3897   14.4645 C.3     1  UNL1        0.0757
     15 C          65.3106   91.1931   13.8367 C.ar    1  UNL1        0.0850
     16 C          66.7019   91.3538   14.3738 C.ar    1  UNL1        0.0375
     17 C          67.4637   92.2369   13.4305 C.ar    1  UNL1        0.1033
     18 N          66.5434   92.6220   12.3105 N.ar    1  UNL1       -0.2110
     19 N          65.2126   91.9768   12.5615 N.ar    1  UNL1       -0.1678
     20 C          66.8923   93.4983   11.1441 C.ar    1  UNL1        0.1638
     21 C          67.5255   92.9029    9.9217 C.ar    1  UNL1        0.0388
     22 C          67.8744   93.7792    8.7553 C.ar    1  UNL1        0.0047
     23 C          67.5902   95.2510    8.8115 C.ar    1  UNL1        0.0208
     24 C          66.9570   95.8464   10.0341 C.ar    1  UNL1        0.1006
     25 N          66.6081   94.9700   11.2003 N.ar    1  UNL1       -0.2250
@<TRIPOS>BOND
     1     1     2    1
     2     2     3   ar
     3     3     4   ar
     4     4    14    1
     5    14    15    1
     6    15    16   ar
     7    16    17   ar
     8    17    18   ar
     9    18    20    1
    10    20    21   ar
    11    21    22   ar
    12    22    23   ar
    13    23    24   ar
    14    24    25   ar
    15    18    19   ar
    16     4     5   ar
    17     5     6   ar
    18     6     7   ar
    19     7     8   ar
    20     8     9   ar
    21     9    10   ar
    22    10     2   ar
    23    19    15   ar
    24     9     5    1
    25    25    20   ar
    26     1    11    1
    27     1    12    1
    28    10    13    1
@<TRIPOS>MOLECULE
*****
 25 28 0 0 0
SMALL
GASTEIGER

@<TRIPOS>ATOM
      1 N          62.1019   90.4956   10.0477 N.pl3   1  UNL1       -0.3441
      2 C          63.2173   91.2033   10.7584 C.ar    1  UNL1        0.1035
      3 C          63.4890   90.9125   12.2046 C.ar    1  UNL1        0.0297
      4 C          64.6044   91.6201   12.9153 C.ar    1  UNL1        0.0090
      5 C          65.4482   92.6186   12.1797 C.ar    1  UNL1        0.1366
      6 N          66.6080   93.4655   12.6130 N.ar    1  UNL1       -0.1258
      7 N          67.0531   94.2797   11.4345 N.ar    1  UNL1       -0.0406
      8 N          66.1684   93.9360   10.2729 N.ar    1  UNL1       -0.1095
      9 C          65.1766   92.9094   10.7335 C.ar    1  UNL1        0.1838
     10 N          64.0611   92.2017   10.0228 N.ar    1  UNL1       -0.3249
     11 H          61.5480   89.8403   10.5305 H       1  UNL1        0.1437
     12 H          61.9236   90.6865    9.0985 H       1  UNL1        0.1437
     13 H          63.8828   92.3926    9.0736 H       1  UNL1        0.1686
     14 C          64.8760   91.3292   14.3616 C.3     1  UNL1        0.0757
     15 C          64.3418   90.0752   14.9876 C.ar    1  UNL1        0.0850
     16 C          63.4935   89.9983   16.2223 C.ar    1  UNL1        0.0375
     17 C          63.1895   88.5534   16.4865 C.ar    1  UNL1        0.1033
     18 N          63.8498   87.7373   15.4152 N.ar    1  UNL1       -0.2110
     19 N          64.5620   88.6779   14.4887 N.ar    1  UNL1       -0.1678
     20 C          63.8058   86.2430   15.2918 C.ar    1  UNL1        0.1638
     21 C          64.9040   85.5171   14.5730 C.ar    1  UNL1        0.0388
     22 C          64.8601   84.0228   14.4495 C.ar    1  UNL1        0.0047
     23 C          63.7176   83.2545   15.0450 C.ar    1  UNL1        0.0208
     24 C          62.6192   83.9804   15.7638 C.ar    1  UNL1        0.1006
     25 N          62.6633   85.4747   15.8872 N.ar    1  UNL1       -0.2250
@<TRIPOS>BOND
     1     1     2    1
     2     2     3   ar
     3     3     4   ar
     4     4    14    1
     5    14    15    1
     6    15    16   ar
     7    16    17   ar
     8    17    18   ar
     9    18    20    1
    10    20    21   ar
    11    21    22   ar
    12    22    23   ar
    13    23    24   ar
    14    24    25   ar
    15    18    19   ar
    16     4     5   ar
    17     5     6   ar
    18     6     7   ar
    19     7     8   ar
    20     8     9   ar
    21     9    10   ar
    22    10     2   ar
    23    19    15   ar
    24     9     5    1
    25    25    20   ar
    26     1    11    1
    27     1    12    1
    28    10    13    1
@<TRIPOS>MOLECULE
*****
 25 28 0 0 0
SMALL
GASTEIGER

@<TRIPOS>ATOM
      1 N          61.1525   79.9026   13.8276 N.pl3   1  UNL1       -0.3441
      2 C          61.9556   81.1648   13.7169 C.ar    1  UNL1        0.1035
      3 C          62.3570   81.6824   12.3676 C.ar    1  UNL1        0.0297
      4 C          63.1601   82.9445   12.2569 C.ar    1  UNL1        0.0090
      5 C          63.5617   83.6890   13.4956 C.ar    1  UNL1        0.1366
      6 N          64.3472   84.9507   13.6980 N.ar    1  UNL1       -0.1258
      7 N          64.4312   85.2128   15.1726 N.ar    1  UNL1       -0.0406
      8 N          63.6976   84.1131   15.8815 N.ar    1  UNL1       -0.1095
      9 C          63.1602   83.1713   14.8450 C.ar    1  UNL1        0.1838
     10 N          62.3572   81.9092   14.9557 N.ar    1  UNL1       -0.3249
     11 H          60.8889   79.4140   13.0146 H       1  UNL1        0.1437
     12 H          60.8891   79.5629   14.7133 H       1  UNL1        0.1437
     13 H          62.0937   81.5694   15.8413 H       1  UNL1        0.1686
     14 C          63.5615   83.4622   10.9074 C.3     1  UNL1        0.0757
     15 C          62.9473   84.7226   10.3745 C.ar    1  UNL1        0.0850
     16 C          62.9486   85.1667    8.9418 C.ar    1  UNL1        0.0375
     17 C          62.2260   86.4788    8.8626 C.ar    1  UNL1        0.1033
     18 N          61.7781   86.8456   10.2463 N.ar    1  UNL1       -0.2110
     19 N          62.2239   85.7601   11.1808 N.ar    1  UNL1       -0.1678
     20 C          61.0179   88.0809   10.6287 C.ar    1  UNL1        0.1638
     21 C          61.2417   89.3611    9.8798 C.ar    1  UNL1        0.0388
     22 C          60.4815   90.5964   10.2621 C.ar    1  UNL1        0.0047
     23 C          59.4975   90.5514   11.3934 C.ar    1  UNL1        0.0208
     24 C          59.2737   89.2711   12.1423 C.ar    1  UNL1        0.1006
     25 N          60.0339   88.0359   11.7599 N.ar    1  UNL1       -0.2250
@<TRIPOS>BOND
     1     1     2    1
     2     2     3   ar
     3     3     4   ar
     4     4    14    1
     5    14    15    1
     6    15    16   ar
     7    16    17   ar
     8    17    18   ar
     9    18    20    1
    10    20    21   ar
    11    21    22   ar
    12    22    23   ar
    13    23    24   ar
    14    24    25   ar
    15    18    19   ar
    16     4     5   ar
    17     5     6   ar
    18     6     7   ar
    19     7     8   ar
    20     8     9   ar
    21     9    10   ar
    22    10     2   ar
    23    19    15   ar
    24     9     5    1
    25    25    20   ar
    26     1    11    1
    27     1    12    1
    28    10    13    1
@<TRIPOS>MOLECULE
*****
 25 28 0 0 0
SMALL
GASTEIGER

@<TRIPOS>ATOM
      1 N          62.3896   89.8720   10.0480 N.pl3   1  UNL1       -0.3441
      2 C          63.1606   90.1666   11.3006 C.ar    1  UNL1        0.1035
      3 C          63.1872   89.1660   12.4177 C.ar    1  UNL1        0.0297
      4 C          63.9583   89.4606   13.6702 C.ar    1  UNL1        0.0090
      5 C          64.7026   90.7558   13.8055 C.ar    1  UNL1        0.1366
      6 N          65.5429   91.3195   14.9128 N.ar    1  UNL1       -0.1258
      7 N          66.0356   92.6686   14.4800 N.ar    1  UNL1       -0.0406
      8 N          65.4998   92.9386   13.1052 N.ar    1  UNL1       -0.1095
      9 C          64.6759   91.7564   12.6884 C.ar    1  UNL1        0.1838
     10 N          63.9049   91.4618   11.4359 N.ar    1  UNL1       -0.3249
     11 H          61.9010   89.0219    9.9591 H       1  UNL1        0.1437
     12 H          62.3721   90.5288    9.3148 H       1  UNL1        0.1437
     13 H          63.8875   92.1185   10.7026 H       1  UNL1        0.1686
     14 C          63.9849   88.4599   14.7874 C.3     1  UNL1        0.0757
     15 C          64.2792   87.0183   14.4961 C.ar    1  UNL1        0.0850
     16 C          65.3109   86.1728   15.1823 C.ar    1  UNL1        0.0375
     17 C          65.2628   84.8010   14.5777 C.ar    1  UNL1        0.1033
     18 N          64.2015   84.7985   13.5177 N.ar    1  UNL1       -0.2110
     19 N          63.5936   86.1689   13.4673 N.ar    1  UNL1       -0.1678
     20 C          63.8157   83.6307   12.6589 C.ar    1  UNL1        0.1638
     21 C          64.3604   83.5114   11.2665 C.ar    1  UNL1        0.0388
     22 C          63.9746   82.3436   10.4076 C.ar    1  UNL1        0.0047
     23 C          63.0441   81.2951   10.9414 C.ar    1  UNL1        0.0208
     24 C          62.4994   81.4145   12.3339 C.ar    1  UNL1        0.1006
     25 N          62.8852   82.5823   13.1926 N.ar    1  UNL1       -0.2250
@<TRIPOS>BOND
     1     1     2    1
     2     2     3   ar
     3     3     4   ar
     4     4    14    1
     5    14    15    1
     6    15    16   ar
     7    16    17   ar
     8    17    18   ar
     9    18    20    1
    10    20    21   ar
    11    21    22   ar
    12    22    23   ar
    13    23    24   ar
    14    24    25   ar
    15    18    19   ar
    16     4     5   ar
    17     5     6   ar
    18     6     7   ar
    19     7     8   ar
    20     8     9   ar
    21     9    10   ar
    22    10     2   ar
    23    19    15   ar
    24     9     5    1
    25    25    20   ar
    26     1    11    1
    27     1    12    1
    28    10    13    1
