@<TRIPOS>MOLECULE
*****
 21 25 0 0 0
SMALL
GASTEIGER

@<TRIPOS>ATOM
      1 O          63.2593   89.3098   13.4997 O.2     1  UNL1       -0.2702
      2 C          63.8423   90.4399   12.7041 C.2     1  UNL1        0.2460
      3 C          64.7930   91.3215   13.4718 C.2     1  UNL1        0.0421
      4 C          65.2630   91.2714   14.8953 C.2     1  UNL1        0.0010
      5 C          66.2319   92.2983   15.4018 C.2     1  UNL1        0.0011
      6 C          66.7308   93.3754   14.4848 C.2     1  UNL1        0.0172
      7 C          66.2608   93.4255   13.0612 C.2     1  UNL1        0.0897
      8 N          66.5761   94.3618   11.9325 N.2     1  UNL1       -0.1522
      9 N          65.8020   93.9135   10.7284 N.2     1  UNL1       -0.1546
     10 C          65.0083   92.7001   11.1129 C.2     1  UNL1        0.0878
     11 C          65.2919   92.3986   12.5547 C.3     1  UNL1        0.1080
     12 C          64.0465   91.7469   10.4679 C.3     1  UNL1        0.1376
     13 N          63.4635   90.6167   11.2635 N.am    1  UNL1       -0.2711
     14 C          61.7410   88.6706   10.6219 C.3     1  UNL1        0.0919
     15 C          60.5065   89.0556   11.0310 C.3     1  UNL1        0.0921
     16 N          59.7392   89.2458   11.2614 N.3     1  UNL1       -0.2713
     17 C          59.9250   87.9216   10.5815 C.3     1  UNL1        0.0722
     18 C          61.2902   87.4958   10.1290 C.3     1  UNL1        0.0191
     19 C          62.4697   88.3942   10.3563 C.3     1  UNL1        0.0224
     20 C          62.2840   89.7183   11.0362 C.3     1  UNL1        0.0191
     21 C          60.9187   90.1441   11.4887 C.3     1  UNL1        0.0722
@<TRIPOS>BOND
     1     1     2    2
     2     2     3    1
     3     3     4    2
     4     4     5    1
     5     5     6    2
     6     6     7    1
     7     7     8    2
     8     8     9    1
     9     9    10    2
    10    10    11    1
    11    10    12    1
    12    12    13    1
    13    14    13    1
    14    14    15    1
    15    15    16    1
    16    16    17    1
    17    17    18    1
    18    18    19    1
    19    19    20    1
    20    20    21    1
    21    13     2   am
    22    19    14    1
    23    11     3    1
    24    21    16    1
    25    11     7    1
@<TRIPOS>MOLECULE
*****
 21 25 0 0 0
SMALL
GASTEIGER

@<TRIPOS>ATOM
      1 O          64.8176   92.6260   12.5920 O.2     1  UNL1       -0.2702
      2 C          64.4997   91.1841   12.8564 C.2     1  UNL1        0.2460
      3 C          63.5692   90.5534   11.8530 C.2     1  UNL1        0.0421
      4 C          62.9009   91.1114   10.6316 C.2     1  UNL1        0.0010
      5 C          62.0077   90.2387    9.8007 C.2     1  UNL1        0.0011
      6 C          61.7828   88.8080   10.1911 C.2     1  UNL1        0.0172
      7 C          62.4511   88.2499   11.4125 C.2     1  UNL1        0.0897
      8 N          62.4186   86.8883   12.0408 N.2     1  UNL1       -0.1522
      9 N          63.2918   86.9194   13.2601 N.2     1  UNL1       -0.1546
     10 C          63.8639   88.3003   13.3854 C.2     1  UNL1        0.0878
     11 C          63.3444   89.1226   12.2435 C.3     1  UNL1        0.1080
     12 C          64.7790   89.0482   14.3091 C.3     1  UNL1        0.1376
     13 N          65.0969   90.4901   14.0447 N.am    1  UNL1       -0.2711
     14 C          66.6332   92.2571   15.3421 C.3     1  UNL1        0.0919
     15 C          67.7957   92.3820   14.6546 C.3     1  UNL1        0.0921
     16 N          68.5165   92.4912   14.2719 N.3     1  UNL1       -0.2713
     17 C          68.2979   93.2845   15.5261 C.3     1  UNL1        0.0722
     18 C          67.0122   93.1464   16.2864 C.3     1  UNL1        0.0191
     19 C          65.9453   92.2149   15.7926 C.3     1  UNL1        0.0224
     20 C          66.1639   91.4216   14.5385 C.3     1  UNL1        0.0191
     21 C          67.4495   91.5597   13.7781 C.3     1  UNL1        0.0722
@<TRIPOS>BOND
     1     1     2    2
     2     2     3    1
     3     3     4    2
     4     4     5    1
     5     5     6    2
     6     6     7    1
     7     7     8    2
     8     8     9    1
     9     9    10    2
    10    10    11    1
    11    10    12    1
    12    12    13    1
    13    14    13    1
    14    14    15    1
    15    15    16    1
    16    16    17    1
    17    17    18    1
    18    18    19    1
    19    19    20    1
    20    20    21    1
    21    13     2   am
    22    19    14    1
    23    11     3    1
    24    21    16    1
    25    11     7    1
@<TRIPOS>MOLECULE
*****
 21 25 0 0 0
SMALL
GASTEIGER

@<TRIPOS>ATOM
      1 O          66.8852   93.3942   12.7647 O.2     1  UNL1       -0.2702
      2 C          65.7092   92.6013   12.2765 C.2     1  UNL1        0.2460
      3 C          65.0464   91.7509   13.3291 C.2     1  UNL1        0.0421
      4 C          65.3533   91.5542   14.7842 C.2     1  UNL1        0.0010
      5 C          64.5102   90.6284   15.6099 C.2     1  UNL1        0.0011
      6 C          63.3602   89.8993   14.9807 C.2     1  UNL1        0.0172
      7 C          63.0533   90.0960   13.5257 C.2     1  UNL1        0.0897
      8 N          61.9929   89.5176   12.6364 N.2     1  UNL1       -0.1522
      9 N          62.1806   90.0859   11.2610 N.2     1  UNL1       -0.1546
     10 C          63.3571   91.0156   11.3002 C.2     1  UNL1        0.0878
     11 C          63.8965   91.0218   12.6999 C.3     1  UNL1        0.1080
     12 C          64.1077   91.9042   10.3531 C.3     1  UNL1        0.1376
     13 N          65.2837   92.6971   10.8413 N.am    1  UNL1       -0.2711
     14 C          66.9398   94.3984    9.6049 C.3     1  UNL1        0.0919
     15 C          66.4974   95.6580    9.8440 C.3     1  UNL1        0.0921
     16 N          66.2674   96.4398    9.9616 N.3     1  UNL1       -0.2713
     17 C          67.4932   96.2216    9.1250 C.3     1  UNL1        0.0722
     18 C          67.9825   94.8285    8.8606 C.3     1  UNL1        0.0191
     19 C          67.2460   93.6537    9.4327 C.3     1  UNL1        0.0224
     20 C          66.0202   93.8719   10.2692 C.3     1  UNL1        0.0191
     21 C          65.5309   95.2650   10.5337 C.3     1  UNL1        0.0722
@<TRIPOS>BOND
     1     1     2    2
     2     2     3    1
     3     3     4    2
     4     4     5    1
     5     5     6    2
     6     6     7    1
     7     7     8    2
     8     8     9    1
     9     9    10    2
    10    10    11    1
    11    10    12    1
    12    12    13    1
    13    14    13    1
    14    14    15    1
    15    15    16    1
    16    16    17    1
    17    17    18    1
    18    18    19    1
    19    19    20    1
    20    20    21    1
    21    13     2   am
    22    19    14    1
    23    11     3    1
    24    21    16    1
    25    11     7    1
@<TRIPOS>MOLECULE
*****
 21 25 0 0 0
SMALL
GASTEIGER

@<TRIPOS>ATOM
      1 O          60.8969   86.8642   11.8925 O.2     1  UNL1       -0.2702
      2 C          61.8303   85.8548   11.2925 C.2     1  UNL1        0.2460
      3 C          62.4574   84.9124   12.2869 C.2     1  UNL1        0.0421
      4 C          62.3149   84.8021   13.7760 C.2     1  UNL1        0.0010
      5 C          63.0736   83.7476   14.5259 C.2     1  UNL1        0.0011
      6 C          63.9748   82.8034   13.7867 C.2     1  UNL1        0.0172
      7 C          64.1172   82.9137   12.2976 C.2     1  UNL1        0.0897
      8 N          64.9247   82.1300   11.3058 N.2     1  UNL1       -0.1522
      9 N          64.6651   82.7001    9.9428 N.2     1  UNL1       -0.1546
     10 C          63.6971   83.8362   10.0923 C.2     1  UNL1        0.0878
     11 C          63.3586   83.9682   11.5477 C.3     1  UNL1        0.1080
     12 C          63.0056   84.8346    9.2120 C.3     1  UNL1        0.1376
     13 N          62.0721   85.8439    9.8120 N.am    1  UNL1       -0.2711
     14 C          60.6113   87.8067    8.7262 C.3     1  UNL1        0.0919
     15 C          59.6880   87.2370    7.9120 C.3     1  UNL1        0.0921
     16 N          59.1108   86.9375    7.4070 N.3     1  UNL1       -0.2713
     17 C          59.1616   88.4293    7.5550 C.3     1  UNL1        0.0722
     18 C          60.1826   89.0594    8.4554 C.3     1  UNL1        0.0191
     19 C          61.1528   88.1976    9.2077 C.3     1  UNL1        0.0224
     20 C          61.1020   86.7057    9.0597 C.3     1  UNL1        0.0191
     21 C          60.0810   86.0757    8.1594 C.3     1  UNL1        0.0722
@<TRIPOS>BOND
     1     1     2    2
     2     2     3    1
     3     3     4    2
     4     4     5    1
     5     5     6    2
     6     6     7    1
     7     7     8    2
     8     8     9    1
     9     9    10    2
    10    10    11    1
    11    10    12    1
    12    12    13    1
    13    14    13    1
    14    14    15    1
    15    15    16    1
    16    16    17    1
    17    17    18    1
    18    18    19    1
    19    19    20    1
    20    20    21    1
    21    13     2   am
    22    19    14    1
    23    11     3    1
    24    21    16    1
    25    11     7    1
@<TRIPOS>MOLECULE
*****
 21 25 0 0 0
SMALL
GASTEIGER

@<TRIPOS>ATOM
      1 O          64.1380   84.3703   14.4247 O.2     1  UNL1       -0.2702
      2 C          63.5245   85.2302   13.3597 C.2     1  UNL1        0.2460
      3 C          63.7419   86.7095   13.5464 C.2     1  UNL1        0.0421
      4 C          64.4651   87.4798   14.6110 C.2     1  UNL1        0.0010
      5 C          64.5240   88.9771   14.5443 C.2     1  UNL1        0.0011
      6 C          63.8597   89.7041   13.4128 C.2     1  UNL1        0.0172
      7 C          63.1365   88.9338   12.3482 C.2     1  UNL1        0.0897
      8 N          62.3928   89.3727   11.1217 N.2     1  UNL1       -0.1522
      9 N          61.8743   88.1466   10.4304 N.2     1  UNL1       -0.1546
     10 C          62.2975   86.9499   11.2296 C.2     1  UNL1        0.0878
     11 C          63.0776   87.4365   12.4149 C.3     1  UNL1        0.1080
     12 C          62.1552   85.4582   11.1635 C.3     1  UNL1        0.1376
     13 N          62.7687   84.5983   12.2285 N.am    1  UNL1       -0.2711
     14 C          62.8167   81.9461   12.5882 C.3     1  UNL1        0.0919
     15 C          62.2376   81.6777   13.7849 C.3     1  UNL1        0.0921
     16 N          61.8945   81.4658   14.5028 N.3     1  UNL1       -0.2713
     17 C          62.4182   80.3448   13.6547 C.3     1  UNL1        0.0722
     18 C          63.0587   80.6416   12.3312 C.3     1  UNL1        0.0191
     19 C          63.1755   82.0595   11.8558 C.3     1  UNL1        0.0224
     20 C          62.6519   83.1804   12.7039 C.3     1  UNL1        0.0191
     21 C          62.0114   82.8836   14.0274 C.3     1  UNL1        0.0722
@<TRIPOS>BOND
     1     1     2    2
     2     2     3    1
     3     3     4    2
     4     4     5    1
     5     5     6    2
     6     6     7    1
     7     7     8    2
     8     8     9    1
     9     9    10    2
    10    10    11    1
    11    10    12    1
    12    12    13    1
    13    14    13    1
    14    14    15    1
    15    15    16    1
    16    16    17    1
    17    17    18    1
    18    18    19    1
    19    19    20    1
    20    20    21    1
    21    13     2   am
    22    19    14    1
    23    11     3    1
    24    21    16    1
    25    11     7    1
@<TRIPOS>MOLECULE
*****
 21 25 0 0 0
SMALL
GASTEIGER

@<TRIPOS>ATOM
      1 O          61.9397   84.8582   10.7168 O.2     1  UNL1       -0.2702
      2 C          62.6143   85.6609   11.7896 C.2     1  UNL1        0.2460
      3 C          62.6248   87.1479   11.5465 C.2     1  UNL1        0.0421
      4 C          62.0791   87.9731   10.4190 C.2     1  UNL1        0.0010
      5 C          62.2354   89.4648   10.4374 C.2     1  UNL1        0.0011
      6 C          62.9373   90.1312   11.5833 C.2     1  UNL1        0.0172
      7 C          63.4829   89.3060   12.7108 C.2     1  UNL1        0.0897
      8 N          64.2162   89.6798   13.9649 N.2     1  UNL1       -0.1522
      9 N          64.5131   88.4191   14.7215 N.2     1  UNL1       -0.1546
     10 C          63.9633   87.2661   13.9351 C.2     1  UNL1        0.0878
     11 C          63.3266   87.8144   12.6924 C.3     1  UNL1        0.1080
     12 C          63.8832   85.7730   14.0540 C.3     1  UNL1        0.1376
     13 N          63.2087   84.9703   12.9812 N.am    1  UNL1       -0.2711
     14 C          62.7944   82.3409   12.6988 C.3     1  UNL1        0.0919
     15 C          62.3061   81.8678   13.8724 C.3     1  UNL1        0.0921
     16 N          62.0079   81.5348   14.5639 N.3     1  UNL1       -0.2713
     17 C          62.2175   80.6018   13.4083 C.3     1  UNL1        0.0722
     18 C          62.7575   81.1249   12.1103 C.3     1  UNL1        0.0191
     19 C          63.0879   82.5811   11.9680 C.3     1  UNL1        0.0224
     20 C          62.8783   83.5141   13.1236 C.3     1  UNL1        0.0191
     21 C          62.3383   82.9910   14.4215 C.3     1  UNL1        0.0722
@<TRIPOS>BOND
     1     1     2    2
     2     2     3    1
     3     3     4    2
     4     4     5    1
     5     5     6    2
     6     6     7    1
     7     7     8    2
     8     8     9    1
     9     9    10    2
    10    10    11    1
    11    10    12    1
    12    12    13    1
    13    14    13    1
    14    14    15    1
    15    15    16    1
    16    16    17    1
    17    17    18    1
    18    18    19    1
    19    19    20    1
    20    20    21    1
    21    13     2   am
    22    19    14    1
    23    11     3    1
    24    21    16    1
    25    11     7    1
@<TRIPOS>MOLECULE
*****
 21 25 0 0 0
SMALL
GASTEIGER

@<TRIPOS>ATOM
      1 O          63.7942   86.3797   13.4713 O.2     1  UNL1       -0.2702
      2 C          62.9261   86.6232   12.2725 C.2     1  UNL1        0.2460
      3 C          62.7816   88.0728   11.8876 C.2     1  UNL1        0.0421
      4 C          63.3527   89.3216   12.4911 C.2     1  UNL1        0.0010
      5 C          63.0355   90.6584   11.8891 C.2     1  UNL1        0.0011
      6 C          62.1473   90.7463   10.6835 C.2     1  UNL1        0.0172
      7 C          61.5762   89.4975   10.0800 C.2     1  UNL1        0.0897
      8 N          60.6769   89.2731    8.9007 N.2     1  UNL1       -0.1522
      9 N          60.4383   87.7976    8.7738 N.2     1  UNL1       -0.1546
     10 C          61.1900   87.1101    9.8747 C.2     1  UNL1        0.0878
     11 C          61.8933   88.1607   10.6821 C.3     1  UNL1        0.1080
     12 C          61.4174   85.7106   10.3643 C.3     1  UNL1        0.1376
     13 N          62.2854   85.4671   11.5632 N.am    1  UNL1       -0.2711
     14 C          63.0084   83.2227   12.8302 C.3     1  UNL1        0.0919
     15 C          64.0040   82.6428   12.1145 C.3     1  UNL1        0.0921
     16 N          64.6097   82.2539   11.7145 N.3     1  UNL1       -0.2713
     17 C          64.1202   81.6093   12.9774 C.3     1  UNL1        0.0722
     18 C          63.0192   82.2506   13.7689 C.3     1  UNL1        0.0191
     19 C          62.4076   83.5365   13.2975 C.3     1  UNL1        0.0224
     20 C          62.8970   84.1812   12.0346 C.3     1  UNL1        0.0191
     21 C          63.9980   83.5399   11.2431 C.3     1  UNL1        0.0722
@<TRIPOS>BOND
     1     1     2    2
     2     2     3    1
     3     3     4    2
     4     4     5    1
     5     5     6    2
     6     6     7    1
     7     7     8    2
     8     8     9    1
     9     9    10    2
    10    10    11    1
    11    10    12    1
    12    12    13    1
    13    14    13    1
    14    14    15    1
    15    15    16    1
    16    16    17    1
    17    17    18    1
    18    18    19    1
    19    19    20    1
    20    20    21    1
    21    13     2   am
    22    19    14    1
    23    11     3    1
    24    21    16    1
    25    11     7    1
@<TRIPOS>MOLECULE
*****
 21 25 0 0 0
SMALL
GASTEIGER

@<TRIPOS>ATOM
      1 O          61.8667   88.1828   12.1681 O.2     1  UNL1       -0.2702
      2 C          62.6146   89.3975   11.7042 C.2     1  UNL1        0.2460
      3 C          63.5391   89.9950   12.7332 C.2     1  UNL1        0.0421
      4 C          63.8470   89.5910   14.1445 C.2     1  UNL1        0.0010
      5 C          64.8286   90.3848   14.9546 C.2     1  UNL1        0.0011
      6 C          65.5023   91.5825   14.3533 C.2     1  UNL1        0.0172
      7 C          65.1944   91.9865   12.9420 C.2     1  UNL1        0.0897
      8 N          65.6986   93.1112   12.0872 N.2     1  UNL1       -0.1522
      9 N          65.0286   93.0126   10.7488 N.2     1  UNL1       -0.1546
     10 C          64.1103   91.8269   10.7764 C.2     1  UNL1        0.0878
     11 C          64.2128   91.1927   12.1319 C.3     1  UNL1        0.1080
     12 C          63.1561   91.1342    9.8492 C.3     1  UNL1        0.1376
     13 N          62.4082   89.9194   10.3131 N.am    1  UNL1       -0.2711
     14 C          60.6262   88.3350    9.0967 C.3     1  UNL1        0.0919
     15 C          61.1792   87.1025    8.9756 C.3     1  UNL1        0.0921
     16 N          61.4725   86.3391    8.8795 N.3     1  UNL1       -0.2713
     17 C          60.0871   86.5935    8.3637 C.3     1  UNL1        0.0722
     18 C          59.4754   87.9566    8.4977 C.3     1  UNL1        0.0191
     19 C          60.2491   89.0652    9.1475 C.3     1  UNL1        0.0224
     20 C          61.6345   88.8108    9.6633 C.3     1  UNL1        0.0191
     21 C          62.2462   87.4478    9.5293 C.3     1  UNL1        0.0722
@<TRIPOS>BOND
     1     1     2    2
     2     2     3    1
     3     3     4    2
     4     4     5    1
     5     5     6    2
     6     6     7    1
     7     7     8    2
     8     8     9    1
     9     9    10    2
    10    10    11    1
    11    10    12    1
    12    12    13    1
    13    14    13    1
    14    14    15    1
    15    15    16    1
    16    16    17    1
    17    17    18    1
    18    18    19    1
    19    19    20    1
    20    20    21    1
    21    13     2   am
    22    19    14    1
    23    11     3    1
    24    21    16    1
    25    11     7    1
@<TRIPOS>MOLECULE
*****
 21 25 0 0 0
SMALL
GASTEIGER

@<TRIPOS>ATOM
      1 O          62.0249   88.9198    9.6821 O.2     1  UNL1       -0.2702
      2 C          62.4643   88.0805   10.8451 C.2     1  UNL1        0.2460
      3 C          63.0894   88.8551   11.9762 C.2     1  UNL1        0.0421
      4 C          63.3522   90.3218   12.1485 C.2     1  UNL1        0.0010
      5 C          64.0015   90.8249   13.4036 C.2     1  UNL1        0.0011
      6 C          64.3879   89.8614   14.4863 C.2     1  UNL1        0.0172
      7 C          64.1250   88.3948   14.3140 C.2     1  UNL1        0.0897
      8 N          64.3934   87.2158   15.2017 N.2     1  UNL1       -0.1522
      9 N          63.9100   85.9840   14.4953 N.2     1  UNL1       -0.1546
     10 C          63.3428   86.4017   13.1710 C.2     1  UNL1        0.0878
     11 C          63.4757   87.8916   13.0589 C.3     1  UNL1        0.1080
     12 C          62.7046   85.7546   11.9777 C.3     1  UNL1        0.1376
     13 N          62.2653   86.5940   10.8147 N.am    1  UNL1       -0.2711
     14 C          61.0996   85.9681    8.4877 C.3     1  UNL1        0.0919
     15 C          62.0207   85.3383    7.7166 C.3     1  UNL1        0.0921
     16 N          62.5448   84.9519    7.2126 N.3     1  UNL1       -0.2713
     17 C          61.1565   85.1756    6.6906 C.3     1  UNL1        0.0722
     18 C          60.1377   85.8721    7.5433 C.3     1  UNL1        0.0191
     19 C          60.5073   86.3449    8.9180 C.3     1  UNL1        0.0224
     20 C          61.8957   86.1212    9.4400 C.3     1  UNL1        0.0191
     21 C          62.9144   85.4247    8.5873 C.3     1  UNL1        0.0722
@<TRIPOS>BOND
     1     1     2    2
     2     2     3    1
     3     3     4    2
     4     4     5    1
     5     5     6    2
     6     6     7    1
     7     7     8    2
     8     8     9    1
     9     9    10    2
    10    10    11    1
    11    10    12    1
    12    12    13    1
    13    14    13    1
    14    14    15    1
    15    15    16    1
    16    16    17    1
    17    17    18    1
    18    18    19    1
    19    19    20    1
    20    20    21    1
    21    13     2   am
    22    19    14    1
    23    11     3    1
    24    21    16    1
    25    11     7    1
