@<TRIPOS>MOLECULE
*****
 48 51 0 0 0
SMALL
GASTEIGER

@<TRIPOS>ATOM
      1 C          60.2689   89.1933   11.1004 C.3     1  UNL1        0.0965
      2 C          59.6352   89.5561   12.4108 C.3     1  UNL1        0.0746
      3 N          58.6742   88.6094   13.0667 N.3     1  UNL1       -0.3207
      4 H          57.8370   88.5215   12.4908 H       1  UNL1        0.1189
      5 H          58.4181   88.9681   13.9866 H       1  UNL1        0.1189
      6 N          62.6435   90.2465   11.0577 N.am    1  UNL1       -0.2770
      7 C          61.2695   90.1161   10.4702 C.2     1  UNL1        0.2270
      8 O          60.8961   90.9085    9.2526 O.2     1  UNL1       -0.2748
      9 C          63.0169   89.4541   12.2753 C.3     1  UNL1        0.0758
     10 C          63.1135   89.3332   13.7673 C.3     1  UNL1        0.0215
     11 C          63.5670   88.2024   12.8923 C.3     1  UNL1        0.0215
     12 C          63.6442   91.1693   10.4274 C.3     1  UNL1        0.1201
     13 C          65.7639   92.3661   13.5618 C.ar    1  UNL1       -0.0194
     14 C          64.8474   91.5512   12.6982 C.ar    1  UNL1       -0.0067
     15 C          64.5607   91.9843   11.2910 C.ar    1  UNL1        0.0004
     16 C          65.1905   93.2324   10.7474 C.ar    1  UNL1        0.0343
     17 C          66.1070   94.0474   11.6110 C.ar    1  UNL1        0.1381
     18 C          66.3937   93.6142   13.0182 C.ar    1  UNL1        0.0326
     19 C          66.0506   91.9330   14.9690 C.3     1  UNL1        0.0290
     20 C          67.3929   91.3626   15.3195 C.3     1  UNL1        0.0367
     21 C          68.5050   92.2722   15.7503 C.3     1  UNL1        0.1426
     22 C          69.3624   94.6910   16.1558 C.3     1  UNL1        0.1741
     23 O          68.2263   93.7207   16.0230 O.3     1  UNL1       -0.3511
     24 O          66.7369   95.2955   11.0674 O.3     1  UNL1       -0.4728
     25 C          66.8250   95.5068    9.5850 C.3     1  UNL1        0.2373
     26 C          67.9135   94.8413    8.7960 C.3     1  UNL1        0.1894
     27 O          68.8262   93.8544    9.4615 O.3     1  UNL1       -0.3471
     28 C          68.5561   92.3839    9.3414 C.3     1  UNL1        0.1743
     29 C          59.9018   87.9077   10.4203 C.3     1  UNL1        0.0368
     30 C          60.9299   86.8286   10.2511 C.ar    1  UNL1       -0.0217
     31 C          61.5252   86.5651    8.8998 C.ar    1  UNL1       -0.0046
     32 C          62.5533   85.4860    8.7306 C.ar    1  UNL1       -0.0046
     33 C          62.9861   84.6704    9.9128 C.ar    1  UNL1       -0.0221
     34 C          62.3908   84.9339   11.2641 C.ar    1  UNL1       -0.0046
     35 C          61.3627   86.0130   11.4333 C.ar    1  UNL1       -0.0046
     36 C          64.0141   83.5913    9.7436 C.3     1  UNL1        0.0302
     37 C          64.1165   82.4878   10.7544 C.3     1  UNL1        0.0520
     38 C          64.9873   82.6570   11.9639 C.3     1  UNL1        0.2058
     39 O          64.4881   82.2313   13.3129 O.3     1  UNL1       -0.4737
     40 C          63.9346   83.2508   14.2638 C.ar    1  UNL1        0.1594
     41 C          64.7695   84.4290   14.6698 C.ar    1  UNL1        0.0921
     42 CL         66.1580   84.5876   14.1248 Cl      1  UNL1       -0.0791
     43 C          64.2160   85.4485   15.6207 C.ar    1  UNL1        0.0103
     44 C          62.8275   85.2898   16.1656 C.ar    1  UNL1       -0.0200
     45 C          62.2740   86.3093   17.1165 C.3     1  UNL1        0.0311
     46 C          61.9925   84.1116   15.7597 C.ar    1  UNL1        0.0103
     47 C          62.5461   83.0921   14.8088 C.ar    1  UNL1        0.0921
     48 CL         61.7112   81.9140   14.4028 Cl      1  UNL1       -0.0791
@<TRIPOS>BOND
     1    22    23    1
     2    23    21    1
     3    21    20    1
     4    20    19    1
     5    19    13    1
     6    13    14   ar
     7    14    15   ar
     8    15    12    1
     9    12     6    1
    10     6     7   am
    11     7     8    2
    12     7     1    1
    13     1     2    1
    14     2     3    1
    15     1    29    1
    16    29    30    1
    17    30    31   ar
    18    31    32   ar
    19    32    33   ar
    20    33    36    1
    21    36    37    1
    22    37    38    1
    23    38    39    1
    24    39    40    1
    25    40    41   ar
    26    41    42    1
    27    41    43   ar
    28    43    44   ar
    29    44    45    1
    30    44    46   ar
    31    46    47   ar
    32    47    48    1
    33    33    34   ar
    34    34    35   ar
    35     6     9    1
    36     9    10    1
    37    10    11    1
    38    15    16   ar
    39    16    17   ar
    40    17    24    1
    41    24    25    1
    42    25    26    1
    43    26    27    1
    44    27    28    1
    45    17    18   ar
    46    18    13   ar
    47    35    30   ar
    48    11     9    1
    49    47    40   ar
    50     3     4    1
    51     3     5    1
@<TRIPOS>MOLECULE
*****
 48 51 0 0 0
SMALL
GASTEIGER

@<TRIPOS>ATOM
      1 C          60.3031   89.1815   10.9535 C.3     1  UNL1        0.0965
      2 C          59.6179   89.6065   12.2185 C.3     1  UNL1        0.0746
      3 N          58.8279   88.6105   13.0146 N.3     1  UNL1       -0.3207
      4 H          58.0170   88.3096   12.4740 H       1  UNL1        0.1189
      5 H          58.5156   89.0416   13.8847 H       1  UNL1        0.1189
      6 N          62.7003   90.1820   11.0015 N.am    1  UNL1       -0.2770
      7 C          61.3588   90.0546   10.3426 C.2     1  UNL1        0.2270
      8 O          61.0730   90.8002    9.0729 O.2     1  UNL1       -0.2748
      9 C          62.9861   89.4363   12.2713 C.3     1  UNL1        0.0758
     10 C          62.9340   89.3519   13.7680 C.3     1  UNL1        0.0215
     11 C          63.5331   88.2292   12.9739 C.3     1  UNL1        0.0215
     12 C          63.7561   91.0550   10.3906 C.3     1  UNL1        0.1201
     13 C          65.9254   92.1625   13.5240 C.ar    1  UNL1       -0.0194
     14 C          65.0138   91.3602   12.6435 C.ar    1  UNL1       -0.0067
     15 C          64.6677   91.8573   11.2712 C.ar    1  UNL1        0.0004
     16 C          65.2332   93.1567   10.7794 C.ar    1  UNL1        0.0343
     17 C          66.1448   93.9589   11.6600 C.ar    1  UNL1        0.1381
     18 C          66.4909   93.4618   13.0322 C.ar    1  UNL1        0.0326
     19 C          66.2714   91.6654   14.8963 C.3     1  UNL1        0.0290
     20 C          66.0883   92.5599   16.0863 C.3     1  UNL1        0.0367
     21 C          64.8346   92.4717   16.9051 C.3     1  UNL1        0.1426
     22 C          63.4357   90.2871   16.7603 C.3     1  UNL1        0.1741
     23 O          63.6464   91.7224   16.3789 O.3     1  UNL1       -0.3511
     24 O          66.7104   95.2583   11.1682 O.3     1  UNL1       -0.4728
     25 C          66.6085   95.6188    9.7158 C.3     1  UNL1        0.2373
     26 C          67.6831   95.1923    8.7600 C.3     1  UNL1        0.1894
     27 O          67.8368   93.7438    8.4022 O.3     1  UNL1       -0.3471
     28 C          68.6088   92.8264    9.3035 C.3     1  UNL1        0.1743
     29 C          59.9325   87.8835   10.2995 C.3     1  UNL1        0.0368
     30 C          60.9616   86.8042   10.1383 C.ar    1  UNL1       -0.0217
     31 C          61.5759   86.5483    8.7940 C.ar    1  UNL1       -0.0046
     32 C          62.6050   85.4690    8.6328 C.ar    1  UNL1       -0.0046
     33 C          63.0199   84.6456    9.8159 C.ar    1  UNL1       -0.0221
     34 C          62.4056   84.9014   11.1602 C.ar    1  UNL1       -0.0046
     35 C          61.3765   85.9807   11.3214 C.ar    1  UNL1       -0.0046
     36 C          64.0490   83.5663    9.6547 C.3     1  UNL1        0.0302
     37 C          64.2498   82.5530   10.7423 C.3     1  UNL1        0.0520
     38 C          64.9886   82.9304   11.9920 C.3     1  UNL1        0.2058
     39 O          64.4880   82.4672   13.3280 O.3     1  UNL1       -0.4737
     40 C          63.9446   83.4612   14.3112 C.ar    1  UNL1        0.1594
     41 C          62.5583   83.2934   14.8588 C.ar    1  UNL1        0.0921
     42 CL         61.7154   82.1315   14.4234 Cl      1  UNL1       -0.0791
     43 C          62.0148   84.2875   15.8419 C.ar    1  UNL1        0.0103
     44 C          62.8577   85.4493   16.2774 C.ar    1  UNL1       -0.0200
     45 C          62.3142   86.4434   17.2605 C.3     1  UNL1        0.0311
     46 C          64.2440   85.6172   15.7297 C.ar    1  UNL1        0.0103
     47 C          64.7875   84.6231   14.7466 C.ar    1  UNL1        0.0921
     48 CL         66.1738   84.7909   14.1989 Cl      1  UNL1       -0.0791
@<TRIPOS>BOND
     1    22    23    1
     2    23    21    1
     3    21    20    1
     4    20    19    1
     5    19    13    1
     6    13    14   ar
     7    14    15   ar
     8    15    12    1
     9    12     6    1
    10     6     7   am
    11     7     8    2
    12     7     1    1
    13     1     2    1
    14     2     3    1
    15     1    29    1
    16    29    30    1
    17    30    31   ar
    18    31    32   ar
    19    32    33   ar
    20    33    36    1
    21    36    37    1
    22    37    38    1
    23    38    39    1
    24    39    40    1
    25    40    41   ar
    26    41    42    1
    27    41    43   ar
    28    43    44   ar
    29    44    45    1
    30    44    46   ar
    31    46    47   ar
    32    47    48    1
    33    33    34   ar
    34    34    35   ar
    35     6     9    1
    36     9    10    1
    37    10    11    1
    38    15    16   ar
    39    16    17   ar
    40    17    24    1
    41    24    25    1
    42    25    26    1
    43    26    27    1
    44    27    28    1
    45    17    18   ar
    46    18    13   ar
    47    35    30   ar
    48    11     9    1
    49    47    40   ar
    50     3     4    1
    51     3     5    1
@<TRIPOS>MOLECULE
*****
 48 51 0 0 0
SMALL
GASTEIGER

@<TRIPOS>ATOM
      1 C          61.0782   88.7727    9.4409 C.3     1  UNL1        0.0965
      2 C          60.5139   89.9797    8.7519 C.3     1  UNL1        0.0746
      3 N          59.7693   89.8255    7.4589 N.3     1  UNL1       -0.3207
      4 H          60.4093   89.4992    6.7348 H       1  UNL1        0.1189
      5 H          59.3752   90.7253    7.1841 H       1  UNL1        0.1189
      6 N          61.4340   89.4663   11.9193 N.am    1  UNL1       -0.2770
      7 C          61.9823   88.9399   10.6261 C.2     1  UNL1        0.2270
      8 O          63.4346   88.5807   10.5181 O.2     1  UNL1       -0.2748
      9 C          59.9817   89.8255   12.0273 C.3     1  UNL1        0.0758
     10 C          58.5848   89.4759   12.4474 C.3     1  UNL1        0.0215
     11 C          58.8631   90.7972   11.7942 C.3     1  UNL1        0.0215
     12 C          62.3381   89.6335   13.1045 C.3     1  UNL1        0.1201
     13 C          64.9005   92.3344   11.7298 C.ar    1  UNL1       -0.0194
     14 C          63.7803   91.3380   11.7758 C.ar    1  UNL1       -0.0067
     15 C          63.4585   90.6300   13.0585 C.ar    1  UNL1        0.0004
     16 C          64.2569   90.9185   14.2951 C.ar    1  UNL1        0.0343
     17 C          65.3771   91.9149   14.2491 C.ar    1  UNL1        0.1381
     18 C          65.6989   92.6228   12.9664 C.ar    1  UNL1        0.0326
     19 C          65.2224   93.0423   10.4471 C.3     1  UNL1        0.0290
     20 C          66.0826   94.2710   10.4641 C.3     1  UNL1        0.0367
     21 C          67.1687   94.4402    9.4434 C.3     1  UNL1        0.1426
     22 C          68.7763   92.4154    9.1865 C.3     1  UNL1        0.1741
     23 O          68.5123   93.8117    9.6668 O.3     1  UNL1       -0.3511
     24 O          66.1756   92.2034   15.4858 O.3     1  UNL1       -0.4728
     25 C          67.3312   93.1577   15.4267 C.3     1  UNL1        0.2373
     26 C          68.7369   92.6341   15.4222 C.3     1  UNL1        0.1894
     27 O          69.4845   92.5034   14.1284 O.3     1  UNL1       -0.3471
     28 C          68.9134   91.6801   13.0122 C.3     1  UNL1        0.1743
     29 C          60.7384   87.3985    8.9448 C.3     1  UNL1        0.0368
     30 C          61.6027   86.2310    9.3189 C.ar    1  UNL1       -0.0217
     31 C          62.5053   85.6078    8.2958 C.ar    1  UNL1       -0.0046
     32 C          63.3696   84.4403    8.6699 C.ar    1  UNL1       -0.0046
     33 C          63.3313   83.8961   10.0672 C.ar    1  UNL1       -0.0221
     34 C          62.4287   84.5193   11.0903 C.ar    1  UNL1       -0.0046
     35 C          61.5644   85.6868   10.7161 C.ar    1  UNL1       -0.0046
     36 C          64.1956   82.7286   10.4413 C.3     1  UNL1        0.0302
     37 C          63.6232   81.5989   11.2451 C.3     1  UNL1        0.0520
     38 C          63.7550   81.5994   12.7393 C.3     1  UNL1        0.2058
     39 O          64.6325   82.6115   13.4145 O.3     1  UNL1       -0.4737
     40 C          64.0447   83.5709   14.4064 C.ar    1  UNL1        0.1594
     41 C          62.6669   83.3365   14.9509 C.ar    1  UNL1        0.0921
     42 CL         61.8767   82.1425   14.5034 Cl      1  UNL1       -0.0791
     43 C          62.0791   84.2960   15.9428 C.ar    1  UNL1        0.0103
     44 C          62.8692   85.4899   16.3903 C.ar    1  UNL1       -0.0200
     45 C          62.2814   86.4493   17.3822 C.3     1  UNL1        0.0311
     46 C          64.2471   85.7244   15.8458 C.ar    1  UNL1        0.0103
     47 C          64.8349   84.7649   14.8539 C.ar    1  UNL1        0.0921
     48 CL         66.2127   84.9994   14.3094 Cl      1  UNL1       -0.0791
@<TRIPOS>BOND
     1    22    23    1
     2    23    21    1
     3    21    20    1
     4    20    19    1
     5    19    13    1
     6    13    14   ar
     7    14    15   ar
     8    15    12    1
     9    12     6    1
    10     6     7   am
    11     7     8    2
    12     7     1    1
    13     1     2    1
    14     2     3    1
    15     1    29    1
    16    29    30    1
    17    30    31   ar
    18    31    32   ar
    19    32    33   ar
    20    33    36    1
    21    36    37    1
    22    37    38    1
    23    38    39    1
    24    39    40    1
    25    40    41   ar
    26    41    42    1
    27    41    43   ar
    28    43    44   ar
    29    44    45    1
    30    44    46   ar
    31    46    47   ar
    32    47    48    1
    33    33    34   ar
    34    34    35   ar
    35     6     9    1
    36     9    10    1
    37    10    11    1
    38    15    16   ar
    39    16    17   ar
    40    17    24    1
    41    24    25    1
    42    25    26    1
    43    26    27    1
    44    27    28    1
    45    17    18   ar
    46    18    13   ar
    47    35    30   ar
    48    11     9    1
    49    47    40   ar
    50     3     4    1
    51     3     5    1
@<TRIPOS>MOLECULE
*****
 48 51 0 0 0
SMALL
GASTEIGER

@<TRIPOS>ATOM
      1 C          61.0315   88.7410    9.4352 C.3     1  UNL1        0.0965
      2 C          60.4628   89.9286    8.7168 C.3     1  UNL1        0.0746
      3 N          59.7611   89.7456    7.4037 N.3     1  UNL1       -0.3207
      4 H          60.4296   89.4260    6.7027 H       1  UNL1        0.1189
      5 H          59.3565   90.6338    7.1077 H       1  UNL1        0.1189
      6 N          61.4109   89.4830   11.8960 N.am    1  UNL1       -0.2770
      7 C          61.9489   88.9407   10.6051 C.2     1  UNL1        0.2270
      8 O          63.4042   88.5982   10.4840 O.2     1  UNL1       -0.2748
      9 C          59.9556   89.8256   12.0171 C.3     1  UNL1        0.0758
     10 C          58.5618   89.4486   12.4235 C.3     1  UNL1        0.0215
     11 C          58.8287   90.7958   11.8206 C.3     1  UNL1        0.0215
     12 C          62.3283   89.6827   13.0659 C.3     1  UNL1        0.1201
     13 C          65.3665   92.0053   14.1266 C.ar    1  UNL1       -0.0194
     14 C          64.2663   90.9885   14.2014 C.ar    1  UNL1       -0.0067
     15 C          63.4286   90.6996   12.9911 C.ar    1  UNL1        0.0004
     16 C          63.6911   91.4274   11.7061 C.ar    1  UNL1        0.0343
     17 C          64.7913   92.4442   11.6313 C.ar    1  UNL1        0.1381
     18 C          65.6290   92.7331   12.8416 C.ar    1  UNL1        0.0326
     19 C          66.2042   92.2942   15.3369 C.3     1  UNL1        0.0290
     20 C          67.5898   91.7295   15.4422 C.3     1  UNL1        0.0367
     21 C          68.7733   92.5714   15.0675 C.3     1  UNL1        0.1426
     22 C          68.8498   91.5840   12.6655 C.3     1  UNL1        0.1741
     23 O          69.5310   92.2810   13.8058 O.3     1  UNL1       -0.3511
     24 O          65.0539   93.1721   10.3463 O.3     1  UNL1       -0.4728
     25 C          65.9829   94.3496   10.3276 C.3     1  UNL1        0.2373
     26 C          67.4317   94.1567    9.9905 C.3     1  UNL1        0.1894
     27 O          67.8202   93.3818    8.7663 O.3     1  UNL1       -0.3471
     28 C          68.8702   92.3144    8.8563 C.3     1  UNL1        0.1743
     29 C          60.6828   87.3537    8.9838 C.3     1  UNL1        0.0368
     30 C          61.5872   86.2056    9.3215 C.ar    1  UNL1       -0.0217
     31 C          62.4916   85.6296    8.2726 C.ar    1  UNL1       -0.0046
     32 C          63.3960   84.4815    8.6103 C.ar    1  UNL1       -0.0046
     33 C          63.3959   83.9094    9.9969 C.ar    1  UNL1       -0.0221
     34 C          62.4914   84.4853   11.0457 C.ar    1  UNL1       -0.0046
     35 C          61.5871   85.6334   10.7081 C.ar    1  UNL1       -0.0046
     36 C          64.3002   82.7613   10.3345 C.3     1  UNL1        0.0302
     37 C          63.7558   81.5652   11.0575 C.3     1  UNL1        0.0520
     38 C          63.6293   81.5856   12.5521 C.3     1  UNL1        0.2058
     39 O          64.5562   82.4337   13.3716 O.3     1  UNL1       -0.4737
     40 C          63.9984   83.4244   14.3500 C.ar    1  UNL1        0.1594
     41 C          62.6224   83.2280   14.9141 C.ar    1  UNL1        0.0921
     42 CL         61.8043   82.0409   14.4999 Cl      1  UNL1       -0.0791
     43 C          62.0646   84.2188   15.8925 C.ar    1  UNL1        0.0103
     44 C          62.8826   85.4058   16.3068 C.ar    1  UNL1       -0.0200
     45 C          62.3247   86.3965   17.2852 C.3     1  UNL1        0.0311
     46 C          64.2586   85.6022   15.7427 C.ar    1  UNL1        0.0103
     47 C          64.8165   84.6115   14.7643 C.ar    1  UNL1        0.0921
     48 CL         66.1924   84.8078   14.2002 Cl      1  UNL1       -0.0791
@<TRIPOS>BOND
     1    22    23    1
     2    23    21    1
     3    21    20    1
     4    20    19    1
     5    19    13    1
     6    13    14   ar
     7    14    15   ar
     8    15    12    1
     9    12     6    1
    10     6     7   am
    11     7     8    2
    12     7     1    1
    13     1     2    1
    14     2     3    1
    15     1    29    1
    16    29    30    1
    17    30    31   ar
    18    31    32   ar
    19    32    33   ar
    20    33    36    1
    21    36    37    1
    22    37    38    1
    23    38    39    1
    24    39    40    1
    25    40    41   ar
    26    41    42    1
    27    41    43   ar
    28    43    44   ar
    29    44    45    1
    30    44    46   ar
    31    46    47   ar
    32    47    48    1
    33    33    34   ar
    34    34    35   ar
    35     6     9    1
    36     9    10    1
    37    10    11    1
    38    15    16   ar
    39    16    17   ar
    40    17    24    1
    41    24    25    1
    42    25    26    1
    43    26    27    1
    44    27    28    1
    45    17    18   ar
    46    18    13   ar
    47    35    30   ar
    48    11     9    1
    49    47    40   ar
    50     3     4    1
    51     3     5    1
@<TRIPOS>MOLECULE
*****
 48 51 0 0 0
SMALL
GASTEIGER

@<TRIPOS>ATOM
      1 C          60.1539   89.5654   11.6552 C.3     1  UNL1        0.0965
      2 C          59.6045   90.8240   11.0516 C.3     1  UNL1        0.0746
      3 N          58.5024   91.5691   11.7447 N.3     1  UNL1       -0.3207
      4 H          57.6568   90.9987   11.7492 H       1  UNL1        0.1189
      5 H          58.3203   92.4431   11.2513 H       1  UNL1        0.1189
      6 N          62.5894   90.0102   12.4433 N.am    1  UNL1       -0.2770
      7 C          61.1691   89.6430   12.7567 C.2     1  UNL1        0.2270
      8 O          60.7641   89.3535   14.1717 O.2     1  UNL1       -0.2748
      9 C          62.9944   90.2997   11.0284 C.3     1  UNL1        0.0758
     10 C          63.5660   91.2376   10.0069 C.3     1  UNL1        0.0215
     11 C          63.1243   89.8634    9.5992 C.3     1  UNL1        0.0215
     12 C          63.6045   90.0877   13.5449 C.3     1  UNL1        0.1201
     13 C          65.6616   93.3252   12.5263 C.ar    1  UNL1       -0.0194
     14 C          64.7417   92.1438   12.4361 C.ar    1  UNL1       -0.0067
     15 C          64.5245   91.2691   13.6351 C.ar    1  UNL1        0.0004
     16 C          65.2272   91.5757   14.9243 C.ar    1  UNL1        0.0343
     17 C          66.1472   92.7570   15.0145 C.ar    1  UNL1        0.1381
     18 C          66.3644   93.6317   13.8155 C.ar    1  UNL1        0.0326
     19 C          65.8789   94.1999   11.3273 C.3     1  UNL1        0.0290
     20 C          66.2023   93.5841    9.9983 C.3     1  UNL1        0.0367
     21 C          67.1271   94.2885    9.0504 C.3     1  UNL1        0.1426
     22 C          68.7796   92.2841    9.0966 C.3     1  UNL1        0.1741
     23 O          68.3020   93.5598    8.4684 O.3     1  UNL1       -0.3511
     24 O          66.8499   93.0636   16.3038 O.3     1  UNL1       -0.4728
     25 C          68.3444   93.1883   16.3321 C.3     1  UNL1        0.2373
     26 C          69.1924   92.2239   15.5568 C.3     1  UNL1        0.1894
     27 O          69.5136   92.4970   14.1173 O.3     1  UNL1       -0.3471
     28 C          69.0025   91.5782   13.0475 C.3     1  UNL1        0.1743
     29 C          59.6882   88.2294   11.1572 C.3     1  UNL1        0.0368
     30 C          60.6898   87.1952   10.7361 C.ar    1  UNL1       -0.0217
     31 C          60.8592   86.8631    9.2832 C.ar    1  UNL1       -0.0046
     32 C          61.8608   85.8290    8.8620 C.ar    1  UNL1       -0.0046
     33 C          62.6929   85.1268    9.8938 C.ar    1  UNL1       -0.0221
     34 C          62.5234   85.4589   11.3467 C.ar    1  UNL1       -0.0046
     35 C          61.5219   86.4931   11.7678 C.ar    1  UNL1       -0.0046
     36 C          63.6945   84.0927    9.4727 C.3     1  UNL1        0.0302
     37 C          64.3845   83.2523   10.5060 C.3     1  UNL1        0.0520
     38 C          63.5895   82.6132   11.6057 C.3     1  UNL1        0.2058
     39 O          64.1821   82.4753   12.9769 O.3     1  UNL1       -0.4737
     40 C          63.7693   83.4155   14.0703 C.ar    1  UNL1        0.1594
     41 C          62.4342   83.2534   14.7346 C.ar    1  UNL1        0.0921
     42 CL         61.5119   82.1510   14.3054 Cl      1  UNL1       -0.0791
     43 C          62.0214   84.1936   15.8280 C.ar    1  UNL1        0.0103
     44 C          62.9436   85.2960   16.2571 C.ar    1  UNL1       -0.0200
     45 C          62.5308   86.2362   17.3506 C.3     1  UNL1        0.0311
     46 C          64.2788   85.4582   15.5929 C.ar    1  UNL1        0.0103
     47 C          64.6916   84.5180   14.4995 C.ar    1  UNL1        0.0921
     48 CL         66.0267   84.6801   13.8352 Cl      1  UNL1       -0.0791
@<TRIPOS>BOND
     1    22    23    1
     2    23    21    1
     3    21    20    1
     4    20    19    1
     5    19    13    1
     6    13    14   ar
     7    14    15   ar
     8    15    12    1
     9    12     6    1
    10     6     7   am
    11     7     8    2
    12     7     1    1
    13     1     2    1
    14     2     3    1
    15     1    29    1
    16    29    30    1
    17    30    31   ar
    18    31    32   ar
    19    32    33   ar
    20    33    36    1
    21    36    37    1
    22    37    38    1
    23    38    39    1
    24    39    40    1
    25    40    41   ar
    26    41    42    1
    27    41    43   ar
    28    43    44   ar
    29    44    45    1
    30    44    46   ar
    31    46    47   ar
    32    47    48    1
    33    33    34   ar
    34    34    35   ar
    35     6     9    1
    36     9    10    1
    37    10    11    1
    38    15    16   ar
    39    16    17   ar
    40    17    24    1
    41    24    25    1
    42    25    26    1
    43    26    27    1
    44    27    28    1
    45    17    18   ar
    46    18    13   ar
    47    35    30   ar
    48    11     9    1
    49    47    40   ar
    50     3     4    1
    51     3     5    1
@<TRIPOS>MOLECULE
*****
 48 51 0 0 0
SMALL
GASTEIGER

@<TRIPOS>ATOM
      1 C          63.6657   83.5429   14.3684 C.3     1  UNL1        0.0965
      2 C          63.7643   82.0783   14.6773 C.3     1  UNL1        0.0746
      3 N          62.5439   81.2103   14.5934 N.3     1  UNL1       -0.3207
      4 H          61.8765   81.4917   15.3115 H       1  UNL1        0.1189
      5 H          62.8089   80.2361   14.7385 H       1  UNL1        0.1189
      6 N          62.5558   83.9535   12.0555 N.am    1  UNL1       -0.2770
      7 C          62.5197   84.0615   13.5512 C.2     1  UNL1        0.2270
      8 O          61.3378   84.6881   14.2296 O.2     1  UNL1       -0.2748
      9 C          63.7377   83.3270   11.3770 C.3     1  UNL1        0.0758
     10 C          64.5383   83.0731   10.1342 C.3     1  UNL1        0.0215
     11 C          64.9844   82.4956   11.4447 C.3     1  UNL1        0.0215
     12 C          61.4098   84.4721   11.2383 C.3     1  UNL1        0.1201
     13 C          62.3135   88.3033   10.7329 C.ar    1  UNL1       -0.0194
     14 C          62.2459   86.9302   11.3328 C.ar    1  UNL1       -0.0067
     15 C          61.4774   85.8453   10.6383 C.ar    1  UNL1        0.0004
     16 C          60.7764   86.1335    9.3439 C.ar    1  UNL1        0.0343
     17 C          60.8440   87.5066    8.7440 C.ar    1  UNL1        0.1381
     18 C          61.6125   88.5915    9.4385 C.ar    1  UNL1        0.0326
     19 C          63.0821   89.3882   11.4274 C.3     1  UNL1        0.0290
     20 C          62.3813   90.3135   12.3774 C.3     1  UNL1        0.0367
     21 C          61.1781   89.8384   13.1367 C.3     1  UNL1        0.1426
     22 C          59.3061   90.6746   11.5409 C.3     1  UNL1        0.1741
     23 O          59.8825   89.6031   12.4182 O.3     1  UNL1       -0.3511
     24 O          60.1429   87.7949    7.4495 O.3     1  UNL1       -0.4728
     25 C          59.3322   89.0479    7.2985 C.3     1  UNL1        0.2373
     26 C          59.4257   89.8542    6.0371 C.3     1  UNL1        0.1894
     27 O          58.5522   91.0592    5.8508 O.3     1  UNL1       -0.3471
     28 C          58.6683   91.8841    4.6033 C.3     1  UNL1        0.1743
     29 C          64.7130   84.4888   14.8766 C.3     1  UNL1        0.0368
     30 C          64.3353   85.8873   15.2659 C.ar    1  UNL1       -0.0217
     31 C          64.7118   87.0394   14.3823 C.ar    1  UNL1       -0.0046
     32 C          64.3340   88.4379   14.7715 C.ar    1  UNL1       -0.0046
     33 C          63.5797   88.6843   16.0444 C.ar    1  UNL1       -0.0221
     34 C          63.2032   87.5322   16.9281 C.ar    1  UNL1       -0.0046
     35 C          63.5810   86.1337   16.5388 C.ar    1  UNL1       -0.0046
     36 C          63.2019   90.0828   16.4337 C.3     1  UNL1        0.0302
     37 C          64.0438   91.2398   15.9839 C.3     1  UNL1        0.0520
     38 C          64.7924   91.1630   14.6862 C.3     1  UNL1        0.2058
     39 O          65.2077   92.4220   13.9844 O.3     1  UNL1       -0.4737
     40 C          66.1509   92.3552   12.8199 C.ar    1  UNL1        0.1594
     41 C          67.6151   92.1278   13.0528 C.ar    1  UNL1        0.0921
     42 CL         68.1363   91.9671   14.4502 Cl      1  UNL1       -0.0791
     43 C          68.5583   92.0610   11.8883 C.ar    1  UNL1        0.0103
     44 C          68.0372   92.2216   10.4910 C.ar    1  UNL1       -0.0200
     45 C          68.9804   92.1548    9.3265 C.3     1  UNL1        0.0311
     46 C          66.5729   92.4490   10.2580 C.ar    1  UNL1        0.0103
     47 C          65.6298   92.5158   11.4225 C.ar    1  UNL1        0.0921
     48 CL         64.1656   92.7432   11.1896 Cl      1  UNL1       -0.0791
@<TRIPOS>BOND
     1    22    23    1
     2    23    21    1
     3    21    20    1
     4    20    19    1
     5    19    13    1
     6    13    14   ar
     7    14    15   ar
     8    15    12    1
     9    12     6    1
    10     6     7   am
    11     7     8    2
    12     7     1    1
    13     1     2    1
    14     2     3    1
    15     1    29    1
    16    29    30    1
    17    30    31   ar
    18    31    32   ar
    19    32    33   ar
    20    33    36    1
    21    36    37    1
    22    37    38    1
    23    38    39    1
    24    39    40    1
    25    40    41   ar
    26    41    42    1
    27    41    43   ar
    28    43    44   ar
    29    44    45    1
    30    44    46   ar
    31    46    47   ar
    32    47    48    1
    33    33    34   ar
    34    34    35   ar
    35     6     9    1
    36     9    10    1
    37    10    11    1
    38    15    16   ar
    39    16    17   ar
    40    17    24    1
    41    24    25    1
    42    25    26    1
    43    26    27    1
    44    27    28    1
    45    17    18   ar
    46    18    13   ar
    47    35    30   ar
    48    11     9    1
    49    47    40   ar
    50     3     4    1
    51     3     5    1
@<TRIPOS>MOLECULE
*****
 48 51 0 0 0
SMALL
GASTEIGER

@<TRIPOS>ATOM
      1 C          61.7279   86.5966    9.0999 C.3     1  UNL1        0.0965
      2 C          60.5003   86.2891    8.2946 C.3     1  UNL1        0.0746
      3 N          60.5791   85.3303    7.1437 N.3     1  UNL1       -0.3207
      4 H          61.1689   85.7258    6.4115 H       1  UNL1        0.1189
      5 H          59.6429   85.1653    6.7740 H       1  UNL1        0.1189
      6 N          60.9724   89.0200    9.6534 N.am    1  UNL1       -0.2770
      7 C          61.7476   87.7870   10.0124 C.2     1  UNL1        0.2270
      8 O          62.5423   87.7443   11.2838 O.2     1  UNL1       -0.2748
      9 C          60.1777   89.0627    8.3819 C.3     1  UNL1        0.0758
     10 C          59.0372   88.5631    7.5456 C.3     1  UNL1        0.0215
     11 C          59.9418   89.6361    7.0161 C.3     1  UNL1        0.0215
     12 C          60.9920   90.2104   10.5659 C.3     1  UNL1        0.1201
     13 C          64.0233   90.8854   13.0369 C.ar    1  UNL1       -0.0194
     14 C          62.7197   90.3738   12.4994 C.ar    1  UNL1       -0.0067
     15 C          62.2957   90.7220   11.1034 C.ar    1  UNL1        0.0004
     16 C          63.1753   91.5817   10.2448 C.ar    1  UNL1        0.0343
     17 C          64.4789   92.0932   10.7823 C.ar    1  UNL1        0.1381
     18 C          64.9029   91.7450   12.1783 C.ar    1  UNL1        0.0326
     19 C          64.4473   90.5372   14.4330 C.3     1  UNL1        0.0290
     20 C          65.7032   91.1257   15.0041 C.3     1  UNL1        0.0367
     21 C          65.6310   92.3400   15.8817 C.3     1  UNL1        0.1426
     22 C          68.2151   92.3041   16.1480 C.3     1  UNL1        0.1741
     23 O          66.8901   92.9526   16.4197 O.3     1  UNL1       -0.3511
     24 O          65.3586   92.9529    9.9237 O.3     1  UNL1       -0.4728
     25 C          66.3010   93.9317   10.5590 C.3     1  UNL1        0.2373
     26 C          67.3724   94.5837    9.7361 C.3     1  UNL1        0.1894
     27 O          68.7064   93.9167    9.5773 O.3     1  UNL1       -0.3471
     28 C          68.7800   92.4707    9.1854 C.3     1  UNL1        0.1743
     29 C          62.9359   85.7138    8.9927 C.3     1  UNL1        0.0368
     30 C          63.0044   84.4378    9.7782 C.ar    1  UNL1       -0.0217
     31 C          63.9857   83.3711    9.3921 C.ar    1  UNL1       -0.0046
     32 C          64.0542   82.0951   10.1776 C.ar    1  UNL1       -0.0046
     33 C          63.1414   81.8857   11.3493 C.ar    1  UNL1       -0.0221
     34 C          62.1601   82.9524   11.7355 C.ar    1  UNL1       -0.0046
     35 C          62.0916   84.2285   10.9499 C.ar    1  UNL1       -0.0046
     36 C          63.2099   80.6097   12.1349 C.3     1  UNL1        0.0302
     37 C          63.3129   80.6544   13.6306 C.3     1  UNL1        0.0520
     38 C          64.2985   81.5749   14.2873 C.3     1  UNL1        0.2058
     39 O          64.4035   83.0032   13.8409 O.3     1  UNL1       -0.4737
     40 C          63.9856   84.1098   14.7633 C.ar    1  UNL1        0.1594
     41 C          64.9315   85.2351   15.0615 C.ar    1  UNL1        0.0921
     42 CL         66.2954   85.2537   14.4374 Cl      1  UNL1       -0.0791
     43 C          64.5136   86.3417   15.9838 C.ar    1  UNL1        0.0103
     44 C          63.1498   86.3232   16.6079 C.ar    1  UNL1       -0.0200
     45 C          62.7319   87.4298   17.5302 C.3     1  UNL1        0.0311
     46 C          62.2038   85.1979   16.3097 C.ar    1  UNL1        0.0103
     47 C          62.6216   84.0912   15.3874 C.ar    1  UNL1        0.0921
     48 CL         61.6757   82.9660   15.0891 Cl      1  UNL1       -0.0791
@<TRIPOS>BOND
     1    22    23    1
     2    23    21    1
     3    21    20    1
     4    20    19    1
     5    19    13    1
     6    13    14   ar
     7    14    15   ar
     8    15    12    1
     9    12     6    1
    10     6     7   am
    11     7     8    2
    12     7     1    1
    13     1     2    1
    14     2     3    1
    15     1    29    1
    16    29    30    1
    17    30    31   ar
    18    31    32   ar
    19    32    33   ar
    20    33    36    1
    21    36    37    1
    22    37    38    1
    23    38    39    1
    24    39    40    1
    25    40    41   ar
    26    41    42    1
    27    41    43   ar
    28    43    44   ar
    29    44    45    1
    30    44    46   ar
    31    46    47   ar
    32    47    48    1
    33    33    34   ar
    34    34    35   ar
    35     6     9    1
    36     9    10    1
    37    10    11    1
    38    15    16   ar
    39    16    17   ar
    40    17    24    1
    41    24    25    1
    42    25    26    1
    43    26    27    1
    44    27    28    1
    45    17    18   ar
    46    18    13   ar
    47    35    30   ar
    48    11     9    1
    49    47    40   ar
    50     3     4    1
    51     3     5    1
@<TRIPOS>MOLECULE
*****
 48 51 0 0 0
SMALL
GASTEIGER

@<TRIPOS>ATOM
      1 C          61.7315   86.6041    8.9954 C.3     1  UNL1        0.0965
      2 C          60.5319   86.2789    8.1556 C.3     1  UNL1        0.0746
      3 N          60.6402   85.2680    7.0527 N.3     1  UNL1       -0.3207
      4 H          61.2652   85.6209    6.3281 H       1  UNL1        0.1189
      5 H          59.7168   85.1004    6.6532 H       1  UNL1        0.1189
      6 N          60.8920   89.0000    9.5475 N.am    1  UNL1       -0.2770
      7 C          61.7076   87.7939    9.9084 C.2     1  UNL1        0.2270
      8 O          62.4994   87.7778   11.1823 O.2     1  UNL1       -0.2748
      9 C          60.1003   89.0161    8.2736 C.3     1  UNL1        0.0758
     10 C          59.8289   89.6031    6.9201 C.3     1  UNL1        0.0215
     11 C          59.0003   88.4572    7.4206 C.3     1  UNL1        0.0215
     12 C          60.8681   90.1898   10.4606 C.3     1  UNL1        0.1201
     13 C          64.4241   91.8236   11.1207 C.ar    1  UNL1       -0.0194
     14 C          63.1709   91.3920   10.4184 C.ar    1  UNL1       -0.0067
     15 C          62.1212   90.6215   11.1630 C.ar    1  UNL1        0.0004
     16 C          62.3246   90.2827   12.6100 C.ar    1  UNL1        0.0343
     17 C          63.5777   90.7143   13.3123 C.ar    1  UNL1        0.1381
     18 C          64.6274   91.4848   12.5677 C.ar    1  UNL1        0.0326
     19 C          65.4738   92.5941   10.3761 C.3     1  UNL1        0.0290
     20 C          66.8986   92.5653   10.8441 C.3     1  UNL1        0.0367
     21 C          68.0171   92.6301    9.8467 C.3     1  UNL1        0.1426
     22 C          67.6040   95.1309    9.2759 C.3     1  UNL1        0.1741
     23 O          68.5356   93.9604    9.3867 O.3     1  UNL1       -0.3511
     24 O          63.7812   90.3755   14.7594 O.3     1  UNL1       -0.4728
     25 C          64.0454   91.4658   15.7550 C.3     1  UNL1        0.2373
     26 C          65.4391   91.9875   15.9438 C.3     1  UNL1        0.1894
     27 O          65.9405   93.1137   15.0893 O.3     1  UNL1       -0.3471
     28 C          67.3878   93.5047   15.1375 C.3     1  UNL1        0.1743
     29 C          62.9550   85.7394    8.9221 C.3     1  UNL1        0.0368
     30 C          63.0228   84.4672    9.7138 C.ar    1  UNL1       -0.0217
     31 C          62.1694   84.2978   10.9357 C.ar    1  UNL1       -0.0046
     32 C          62.2372   83.0256   11.7274 C.ar    1  UNL1       -0.0046
     33 C          63.1584   81.9227   11.2973 C.ar    1  UNL1       -0.0221
     34 C          64.0118   82.0921   10.0755 C.ar    1  UNL1       -0.0046
     35 C          63.9440   83.3643    9.2837 C.ar    1  UNL1       -0.0046
     36 C          63.2261   80.6505   12.0890 C.3     1  UNL1        0.0302
     37 C          63.2032   80.6978   13.5881 C.3     1  UNL1        0.0520
     38 C          64.1882   81.5549   14.3265 C.3     1  UNL1        0.2058
     39 O          64.4194   82.9730   13.8957 O.3     1  UNL1       -0.4737
     40 C          64.0050   84.1050   14.7884 C.ar    1  UNL1        0.1594
     41 C          62.6397   84.1093   15.4094 C.ar    1  UNL1        0.0921
     42 CL         61.6886   82.9816   15.1378 Cl      1  UNL1       -0.0791
     43 C          62.2253   85.2413   16.3020 C.ar    1  UNL1        0.0103
     44 C          63.1762   86.3691   16.5737 C.ar    1  UNL1       -0.0200
     45 C          62.7619   87.5011   17.4663 C.3     1  UNL1        0.0311
     46 C          64.5417   86.3648   15.9526 C.ar    1  UNL1        0.0103
     47 C          64.9561   85.2328   15.0600 C.ar    1  UNL1        0.0921
     48 CL         66.3214   85.2285   14.4389 Cl      1  UNL1       -0.0791
@<TRIPOS>BOND
     1    22    23    1
     2    23    21    1
     3    21    20    1
     4    20    19    1
     5    19    13    1
     6    13    14   ar
     7    14    15   ar
     8    15    12    1
     9    12     6    1
    10     6     7   am
    11     7     8    2
    12     7     1    1
    13     1     2    1
    14     2     3    1
    15     1    29    1
    16    29    30    1
    17    30    31   ar
    18    31    32   ar
    19    32    33   ar
    20    33    36    1
    21    36    37    1
    22    37    38    1
    23    38    39    1
    24    39    40    1
    25    40    41   ar
    26    41    42    1
    27    41    43   ar
    28    43    44   ar
    29    44    45    1
    30    44    46   ar
    31    46    47   ar
    32    47    48    1
    33    33    34   ar
    34    34    35   ar
    35     6     9    1
    36     9    10    1
    37    10    11    1
    38    15    16   ar
    39    16    17   ar
    40    17    24    1
    41    24    25    1
    42    25    26    1
    43    26    27    1
    44    27    28    1
    45    17    18   ar
    46    18    13   ar
    47    35    30   ar
    48    11     9    1
    49    47    40   ar
    50     3     4    1
    51     3     5    1
@<TRIPOS>MOLECULE
*****
 48 51 0 0 0
SMALL
GASTEIGER

@<TRIPOS>ATOM
      1 C          62.8018   84.8015   13.3419 C.3     1  UNL1        0.0965
      2 C          62.2192   83.6676   14.1325 C.3     1  UNL1        0.0746
      3 N          63.1146   82.5929   14.6740 N.3     1  UNL1       -0.3207
      4 H          63.5234   82.0690   13.9001 H       1  UNL1        0.1189
      5 H          62.5707   81.9616   15.2622 H       1  UNL1        0.1189
      6 N          62.5457   84.5473   10.7689 N.am    1  UNL1       -0.2770
      7 C          62.1623   85.2230   12.0521 C.2     1  UNL1        0.2270
      8 O          61.1394   86.3200   12.0456 O.2     1  UNL1       -0.2748
      9 C          63.5686   83.4502   10.7755 C.3     1  UNL1        0.0758
     10 C          64.9173   82.9341   11.1810 C.3     1  UNL1        0.0215
     11 C          63.9916   82.0662   10.3812 C.3     1  UNL1        0.0215
     12 C          61.9061   84.9688    9.4792 C.3     1  UNL1        0.1201
     13 C          61.9029   88.9262    9.7772 C.ar    1  UNL1       -0.0194
     14 C          62.2694   87.4886    9.9978 C.ar    1  UNL1       -0.0067
     15 C          61.5395   86.4065    9.2586 C.ar    1  UNL1        0.0004
     16 C          60.4431   86.7621    8.2988 C.ar    1  UNL1        0.0343
     17 C          60.0765   88.1998    8.0782 C.ar    1  UNL1        0.1381
     18 C          60.8064   89.2818    8.8174 C.ar    1  UNL1        0.0326
     19 C          62.6328   90.0083   10.5164 C.3     1  UNL1        0.0290
     20 C          61.9057   90.8522   11.5209 C.3     1  UNL1        0.0367
     21 C          60.4501   90.6102   11.7906 C.3     1  UNL1        0.1426
     22 C          58.6105   89.0251   12.7143 C.3     1  UNL1        0.1741
     23 O          60.0320   89.5040   12.7134 O.3     1  UNL1       -0.3511
     24 O          58.9800   88.5555    7.1184 O.3     1  UNL1       -0.4728
     25 C          59.1833   89.6589    6.1228 C.3     1  UNL1        0.2373
     26 C          58.0516   90.5846    5.7876 C.3     1  UNL1        0.1894
     27 O          58.3370   91.9420    5.2166 O.3     1  UNL1       -0.3471
     28 C          59.5303   92.1474    4.3313 C.3     1  UNL1        0.1743
     29 C          64.0239   85.5137   13.8409 C.3     1  UNL1        0.0368
     30 C          63.9087   86.9031   14.3945 C.ar    1  UNL1       -0.0217
     31 C          63.6613   87.1085   15.8596 C.ar    1  UNL1       -0.0046
     32 C          63.5461   88.4978   16.4132 C.ar    1  UNL1       -0.0046
     33 C          63.6781   89.6817   15.5017 C.ar    1  UNL1       -0.0221
     34 C          63.9255   89.4763   14.0366 C.ar    1  UNL1       -0.0046
     35 C          64.0407   88.0870   13.4830 C.ar    1  UNL1       -0.0046
     36 C          63.5629   91.0711   16.0553 C.3     1  UNL1        0.0302
     37 C          64.7995   91.8401   16.4150 C.3     1  UNL1        0.0520
     38 C          65.6663   92.4147   15.3341 C.3     1  UNL1        0.2058
     39 O          66.5590   91.5155   14.5312 O.3     1  UNL1       -0.4737
     40 C          66.9139   91.8773   13.1194 C.ar    1  UNL1        0.1594
     41 C          65.8318   92.2149   12.1371 C.ar    1  UNL1        0.0921
     42 CL         64.3948   92.1907   12.5665 Cl      1  UNL1       -0.0791
     43 C          66.1867   92.5767   10.7253 C.ar    1  UNL1        0.0103
     44 C          67.6237   92.6009   10.2958 C.ar    1  UNL1       -0.0200
     45 C          67.9786   92.9627    8.8840 C.3     1  UNL1        0.0311
     46 C          68.7059   92.2632   11.2782 C.ar    1  UNL1        0.0103
     47 C          68.3510   91.9014   12.6900 C.ar    1  UNL1        0.0921
     48 CL         69.4331   91.5638   13.6723 Cl      1  UNL1       -0.0791
@<TRIPOS>BOND
     1    22    23    1
     2    23    21    1
     3    21    20    1
     4    20    19    1
     5    19    13    1
     6    13    14   ar
     7    14    15   ar
     8    15    12    1
     9    12     6    1
    10     6     7   am
    11     7     8    2
    12     7     1    1
    13     1     2    1
    14     2     3    1
    15     1    29    1
    16    29    30    1
    17    30    31   ar
    18    31    32   ar
    19    32    33   ar
    20    33    36    1
    21    36    37    1
    22    37    38    1
    23    38    39    1
    24    39    40    1
    25    40    41   ar
    26    41    42    1
    27    41    43   ar
    28    43    44   ar
    29    44    45    1
    30    44    46   ar
    31    46    47   ar
    32    47    48    1
    33    33    34   ar
    34    34    35   ar
    35     6     9    1
    36     9    10    1
    37    10    11    1
    38    15    16   ar
    39    16    17   ar
    40    17    24    1
    41    24    25    1
    42    25    26    1
    43    26    27    1
    44    27    28    1
    45    17    18   ar
    46    18    13   ar
    47    35    30   ar
    48    11     9    1
    49    47    40   ar
    50     3     4    1
    51     3     5    1
