@<TRIPOS>MOLECULE
*****
 32 35 0 0 0
SMALL
GASTEIGER

@<TRIPOS>ATOM
      1 C          63.1279   89.5109   12.1760 C.ar    1  UNL1        0.1549
      2 C          63.2899   90.2836   10.9005 C.ar    1  UNL1        0.0396
      3 C          64.1666   91.5003   10.8670 C.ar    1  UNL1        0.0234
      4 C          64.8812   91.9443   12.1089 C.ar    1  UNL1        0.1261
      5 C          64.7191   91.1716   13.3843 C.ar    1  UNL1        0.0335
      6 C          63.8424   89.9549   13.4178 C.ar    1  UNL1        0.1042
      7 S          65.7578   93.1610   12.0754 S.O2    1  UNL1        0.0751
      8 O          65.7493   93.2084   13.5746 O.2     1  UNL1       -0.1499
      9 O          65.7663   93.1135   10.5762 O.2     1  UNL1       -0.1499
     10 N          66.6345   94.3777   12.0419 N.pl3   1  UNL1       -0.1925
     11 H          67.1213   94.6561   12.8511 H       1  UNL1        0.1758
     12 C          66.7694   95.1702   10.7756 C.ar    1  UNL1        0.1977
     13 N          67.7373   94.8962    9.6629 N.ar    1  UNL1       -0.1997
     14 C          67.5263   95.9325    8.5992 C.ar    1  UNL1        0.2082
     15 N          66.4279   96.8471    9.0545 N.ar    1  UNL1       -0.1840
     16 S          65.9601   96.3759   10.3995 S.2     1  UNL1        0.0508
     17 C          63.6804   89.1821   14.6933 C.1     1  UNL1        0.1035
     18 N          63.5183   88.4095   15.9687 N.1     1  UNL1       -0.1907
     19 O          62.2512   88.2942   12.2095 O.3     1  UNL1       -0.4528
     20 C          61.4564   86.5285   10.4772 C.ar    1  UNL1        0.0527
     21 C          60.6323   86.1647    9.2778 C.ar    1  UNL1        0.0159
     22 C          59.7788   87.2026    8.6115 C.ar    1  UNL1        0.0579
     23 CL         58.9546   86.8388    7.4121 Cl      1  UNL1       -0.0822
     24 C          59.7494   88.6045    9.1444 C.ar    1  UNL1        0.0145
     25 C          60.5735   88.9683   10.3437 C.ar    1  UNL1        0.0384
     26 C          61.4270   87.9303   11.0101 C.ar    1  UNL1        0.1467
     27 C          63.4497   84.4287    8.9714 C.3     1  UNL1        0.1537
     28 N          63.2262   84.5254   10.4515 N.ar    1  UNL1       -0.2487
     29 N          63.8796   83.6739   11.4993 N.ar    1  UNL1       -0.1676
     30 C          63.3672   84.1127   12.8391 C.ar    1  UNL1        0.1217
     31 C          62.3971   85.2355   12.6192 C.ar    1  UNL1        0.0413
     32 C          62.3100   85.4905   11.1436 C.ar    1  UNL1        0.0825
@<TRIPOS>BOND
     1    27    28    1
     2    28    29   ar
     3    29    30   ar
     4    30    31   ar
     5    31    32   ar
     6    32    20    1
     7    20    21   ar
     8    21    22   ar
     9    22    23    1
    10    22    24   ar
    11    24    25   ar
    12    25    26   ar
    13    26    19    1
    14    19     1    1
    15     1     2   ar
    16     2     3   ar
    17     3     4   ar
    18     4     7    1
    19     7     8    2
    20     7     9    2
    21     7    10    1
    22    10    12    1
    23    12    13   ar
    24    13    14   ar
    25    14    15   ar
    26    15    16   ar
    27     4     5   ar
    28     5     6   ar
    29     6    17    1
    30    17    18    3
    31    32    28   ar
    32    26    20   ar
    33     6     1   ar
    34    16    12   ar
    35    10    11    1
@<TRIPOS>MOLECULE
*****
 32 35 0 0 0
SMALL
GASTEIGER

@<TRIPOS>ATOM
      1 C          62.6671   88.3828   12.0335 C.ar    1  UNL1        0.1549
      2 C          63.6360   88.7804   13.1074 C.ar    1  UNL1        0.0396
      3 C          64.3302   90.1082   13.0370 C.ar    1  UNL1        0.0234
      4 C          64.0555   91.0385   11.8928 C.ar    1  UNL1        0.1261
      5 C          63.0866   90.6409   10.8190 C.ar    1  UNL1        0.0335
      6 C          62.3923   89.3131   10.8893 C.ar    1  UNL1        0.1042
      7 S          64.7497   92.3663   11.8225 S.O2    1  UNL1        0.0751
      8 O          65.0860   92.2677   13.2810 O.2     1  UNL1       -0.1499
      9 O          64.4134   92.4649   10.3640 O.2     1  UNL1       -0.1499
     10 N          65.4439   93.6941   11.7522 N.pl3   1  UNL1       -0.1925
     11 H          65.1945   94.4136   12.3761 H       1  UNL1        0.1758
     12 C          66.5181   93.9257   10.7312 C.ar    1  UNL1        0.1977
     13 N          67.5770   92.9432   10.3271 N.ar    1  UNL1       -0.1997
     14 C          68.4353   93.5907    9.2812 C.ar    1  UNL1        0.2082
     15 N          67.9069   94.9735    9.0388 N.ar    1  UNL1       -0.1840
     16 S          66.7219   95.1805    9.9349 S.2     1  UNL1        0.0508
     17 C          61.4234   88.9156    9.8155 C.1     1  UNL1        0.1035
     18 N          60.4545   88.5181    8.7416 N.1     1  UNL1       -0.1907
     19 O          61.9728   87.0550   12.1038 O.3     1  UNL1       -0.4528
     20 C          63.3173   84.8531   12.4104 C.ar    1  UNL1        0.0527
     21 C          63.9668   83.6352   11.8232 C.ar    1  UNL1        0.0159
     22 C          63.9215   83.4013   10.3423 C.ar    1  UNL1        0.0579
     23 CL         64.5710   82.1833    9.7551 Cl      1  UNL1       -0.0822
     24 C          63.2265   84.3853    9.4485 C.ar    1  UNL1        0.0145
     25 C          62.5770   85.6032   10.0357 C.ar    1  UNL1        0.0384
     26 C          62.6224   85.8371   11.5166 C.ar    1  UNL1        0.1467
     27 C          61.8233   83.0505   14.6838 C.3     1  UNL1        0.1537
     28 N          62.6760   84.2585   14.9363 N.ar    1  UNL1       -0.2487
     29 N          62.9916   84.8500   16.2781 N.ar    1  UNL1       -0.1676
     30 C          63.8734   86.0442   16.0625 C.ar    1  UNL1        0.1217
     31 C          64.1027   86.1906   14.5874 C.ar    1  UNL1        0.0413
     32 C          63.3627   85.0870   13.8914 C.ar    1  UNL1        0.0825
@<TRIPOS>BOND
     1    27    28    1
     2    28    29   ar
     3    29    30   ar
     4    30    31   ar
     5    31    32   ar
     6    32    20    1
     7    20    21   ar
     8    21    22   ar
     9    22    23    1
    10    22    24   ar
    11    24    25   ar
    12    25    26   ar
    13    26    19    1
    14    19     1    1
    15     1     2   ar
    16     2     3   ar
    17     3     4   ar
    18     4     7    1
    19     7     8    2
    20     7     9    2
    21     7    10    1
    22    10    12    1
    23    12    13   ar
    24    13    14   ar
    25    14    15   ar
    26    15    16   ar
    27     4     5   ar
    28     5     6   ar
    29     6    17    1
    30    17    18    3
    31    32    28   ar
    32    26    20   ar
    33     6     1   ar
    34    16    12   ar
    35    10    11    1
@<TRIPOS>MOLECULE
*****
 32 35 0 0 0
SMALL
GASTEIGER

@<TRIPOS>ATOM
      1 C          62.1128   86.5277   11.0697 C.ar    1  UNL1        0.1549
      2 C          61.3359   85.6431   10.1402 C.ar    1  UNL1        0.0396
      3 C          60.4677   86.2499    9.0780 C.ar    1  UNL1        0.0234
      4 C          60.3765   87.7413    8.9455 C.ar    1  UNL1        0.1261
      5 C          61.1534   88.6258    9.8750 C.ar    1  UNL1        0.0335
      6 C          62.0215   88.0190   10.9371 C.ar    1  UNL1        0.1042
      7 S          59.5083   88.3481    7.8833 S.O2    1  UNL1        0.0751
      8 O          59.7768   89.7133    8.4438 O.2     1  UNL1       -0.1499
      9 O          59.2398   86.9829    7.3229 O.2     1  UNL1       -0.1499
     10 N          58.6401   88.9549    6.8212 N.pl3   1  UNL1       -0.1925
     11 H          57.7189   88.6317    6.6945 H       1  UNL1        0.1758
     12 C          59.1756   90.0540    5.9523 C.ar    1  UNL1        0.1977
     13 N          60.6011   90.2169    5.5148 N.ar    1  UNL1       -0.1997
     14 C          60.6861   91.4468    4.6604 C.ar    1  UNL1        0.2082
     15 N          59.3131   92.0441    4.5698 N.ar    1  UNL1       -0.1840
     16 S          58.3796   91.1833    5.3683 S.2     1  UNL1        0.0508
     17 C          62.7985   88.9036   11.8666 C.1     1  UNL1        0.1035
     18 N          63.5754   89.7881   12.7961 N.1     1  UNL1       -0.1907
     19 O          62.9810   85.9209   12.1318 O.3     1  UNL1       -0.4528
     20 C          62.8727   83.8992   13.7601 C.ar    1  UNL1        0.0527
     21 C          62.8497   82.4174   13.9915 C.ar    1  UNL1        0.0159
     22 C          62.9120   81.4753   12.8259 C.ar    1  UNL1        0.0579
     23 CL         62.8890   79.9934   13.0573 Cl      1  UNL1       -0.0822
     24 C          62.9973   82.0150   11.4290 C.ar    1  UNL1        0.0145
     25 C          63.0203   83.4969   11.1976 C.ar    1  UNL1        0.0384
     26 C          62.9580   84.4390   12.3632 C.ar    1  UNL1        0.1467
     27 C          65.2733   85.8676   14.7661 C.3     1  UNL1        0.1537
     28 N          63.9138   85.7461   15.3880 N.ar    1  UNL1       -0.2487
     29 N          63.4190   86.5081   16.5816 N.ar    1  UNL1       -0.1676
     30 C          62.0097   86.0743   16.8569 C.ar    1  UNL1        0.1217
     31 C          61.6335   85.0442   15.8334 C.ar    1  UNL1        0.0413
     32 C          62.8103   84.8414   14.9257 C.ar    1  UNL1        0.0825
@<TRIPOS>BOND
     1    27    28    1
     2    28    29   ar
     3    29    30   ar
     4    30    31   ar
     5    31    32   ar
     6    32    20    1
     7    20    21   ar
     8    21    22   ar
     9    22    23    1
    10    22    24   ar
    11    24    25   ar
    12    25    26   ar
    13    26    19    1
    14    19     1    1
    15     1     2   ar
    16     2     3   ar
    17     3     4   ar
    18     4     7    1
    19     7     8    2
    20     7     9    2
    21     7    10    1
    22    10    12    1
    23    12    13   ar
    24    13    14   ar
    25    14    15   ar
    26    15    16   ar
    27     4     5   ar
    28     5     6   ar
    29     6    17    1
    30    17    18    3
    31    32    28   ar
    32    26    20   ar
    33     6     1   ar
    34    16    12   ar
    35    10    11    1
@<TRIPOS>MOLECULE
*****
 32 35 0 0 0
SMALL
GASTEIGER

@<TRIPOS>ATOM
      1 C          63.3699   88.8867   12.6609 C.ar    1  UNL1        0.1549
      2 C          63.3250   90.1730   11.8904 C.ar    1  UNL1        0.0396
      3 C          64.0757   91.3723   12.3886 C.ar    1  UNL1        0.0234
      4 C          64.8714   91.2853   13.6572 C.ar    1  UNL1        0.1261
      5 C          64.9163   89.9990   14.4276 C.ar    1  UNL1        0.0335
      6 C          64.1656   88.7998   13.9295 C.ar    1  UNL1        0.1042
      7 S          65.6222   92.4845   14.1554 S.O2    1  UNL1        0.0751
      8 O          66.2317   92.6672   12.7970 O.2     1  UNL1       -0.1499
      9 O          65.0126   92.3018   15.5137 O.2     1  UNL1       -0.1499
     10 N          66.3729   93.6838   14.6535 N.pl3   1  UNL1       -0.1925
     11 H          65.9923   94.5847   14.5405 H       1  UNL1        0.1758
     12 C          67.7035   93.5104   15.3239 C.ar    1  UNL1        0.1977
     13 N          68.6023   94.6138   15.7981 N.ar    1  UNL1       -0.1997
     14 C          69.8232   93.9886   16.4050 C.ar    1  UNL1        0.2082
     15 N          69.6791   92.4987   16.3059 N.ar    1  UNL1       -0.1840
     16 S          68.3690   92.2033   15.6378 S.2     1  UNL1        0.0508
     17 C          64.2105   87.5135   14.6999 C.1     1  UNL1        0.1035
     18 N          64.2554   86.2273   15.4704 N.1     1  UNL1       -0.1907
     19 O          62.6192   87.6875   12.1627 O.3     1  UNL1       -0.4528
     20 C          61.6110   86.6646    9.9977 C.ar    1  UNL1        0.0527
     21 C          60.7182   86.7837    8.7983 C.ar    1  UNL1        0.0159
     22 C          59.9405   88.0448    8.5646 C.ar    1  UNL1        0.0579
     23 CL         59.0475   88.1640    7.3651 Cl      1  UNL1       -0.0822
     24 C          60.0557   89.1869    9.5302 C.ar    1  UNL1        0.0145
     25 C          60.9486   89.0678   10.7296 C.ar    1  UNL1        0.0384
     26 C          61.7262   87.8066   10.9633 C.ar    1  UNL1        0.1467
     27 C          63.1841   84.9315    7.7235 C.3     1  UNL1        0.1537
     28 N          63.1118   84.6068    9.1861 N.ar    1  UNL1       -0.2487
     29 N          63.7499   83.4285    9.8603 N.ar    1  UNL1       -0.1676
     30 C          63.4212   83.4969   11.3223 C.ar    1  UNL1        0.1217
     31 C          62.5800   84.7174   11.5516 C.ar    1  UNL1        0.0413
     32 C          62.3888   85.4034   10.2314 C.ar    1  UNL1        0.0825
@<TRIPOS>BOND
     1    27    28    1
     2    28    29   ar
     3    29    30   ar
     4    30    31   ar
     5    31    32   ar
     6    32    20    1
     7    20    21   ar
     8    21    22   ar
     9    22    23    1
    10    22    24   ar
    11    24    25   ar
    12    25    26   ar
    13    26    19    1
    14    19     1    1
    15     1     2   ar
    16     2     3   ar
    17     3     4   ar
    18     4     7    1
    19     7     8    2
    20     7     9    2
    21     7    10    1
    22    10    12    1
    23    12    13   ar
    24    13    14   ar
    25    14    15   ar
    26    15    16   ar
    27     4     5   ar
    28     5     6   ar
    29     6    17    1
    30    17    18    3
    31    32    28   ar
    32    26    20   ar
    33     6     1   ar
    34    16    12   ar
    35    10    11    1
@<TRIPOS>MOLECULE
*****
 32 35 0 0 0
SMALL
GASTEIGER

@<TRIPOS>ATOM
      1 C          61.9691   88.0454   11.1899 C.ar    1  UNL1        0.1549
      2 C          61.2915   89.3726   11.0180 C.ar    1  UNL1        0.0396
      3 C          60.4518   89.6341    9.8029 C.ar    1  UNL1        0.0234
      4 C          60.2896   88.5684    8.7597 C.ar    1  UNL1        0.1261
      5 C          60.9672   87.2413    8.9317 C.ar    1  UNL1        0.0335
      6 C          61.8069   86.9798   10.1468 C.ar    1  UNL1        0.1042
      7 S          59.4499   88.8299    7.5446 S.O2    1  UNL1        0.0751
      8 O          59.3923   87.3569    7.2674 O.2     1  UNL1       -0.1499
      9 O          59.5074   90.3030    7.8219 O.2     1  UNL1       -0.1499
     10 N          58.6101   89.0914    6.3296 N.pl3   1  UNL1       -0.1925
     11 H          57.9291   88.4371    6.0517 H       1  UNL1        0.1758
     12 C          58.8080   90.3500    5.5378 C.ar    1  UNL1        0.1977
     13 N          60.1191   90.8798    5.0374 N.ar    1  UNL1       -0.1997
     14 C          59.8510   92.1569    4.2978 C.ar    1  UNL1        0.2082
     15 N          58.3741   92.4164    4.3410 N.ar    1  UNL1       -0.1840
     16 S          57.7296   91.2996    5.1074 S.2     1  UNL1        0.0508
     17 C          62.4845   85.6526   10.3188 C.1     1  UNL1        0.1035
     18 N          63.1620   84.3254   10.4907 N.1     1  UNL1       -0.1907
     19 O          62.8088   87.7839   12.4050 O.3     1  UNL1       -0.4528
     20 C          64.2861   88.6888   14.3413 C.ar    1  UNL1        0.0527
     21 C          65.0772   89.8028   14.9602 C.ar    1  UNL1        0.0159
     22 C          65.1822   91.1261   14.2617 C.ar    1  UNL1        0.0579
     23 CL         65.9733   92.2402   14.8806 Cl      1  UNL1       -0.0822
     24 C          64.4961   91.3353   12.9443 C.ar    1  UNL1        0.0145
     25 C          63.7050   90.2213   12.3254 C.ar    1  UNL1        0.0384
     26 C          63.6000   88.8980   13.0239 C.ar    1  UNL1        0.1467
     27 C          62.8895   88.1564   17.2424 C.3     1  UNL1        0.1537
     28 N          63.5391   87.1208   16.3732 N.ar    1  UNL1       -0.2487
     29 N          63.6608   85.6586   16.6850 N.ar    1  UNL1       -0.1676
     30 C          64.3780   84.9995   15.5442 C.ar    1  UNL1        0.1217
     31 C          64.6995   86.0544   14.5274 C.ar    1  UNL1        0.0413
     32 C          64.1810   87.3654   15.0398 C.ar    1  UNL1        0.0825
@<TRIPOS>BOND
     1    27    28    1
     2    28    29   ar
     3    29    30   ar
     4    30    31   ar
     5    31    32   ar
     6    32    20    1
     7    20    21   ar
     8    21    22   ar
     9    22    23    1
    10    22    24   ar
    11    24    25   ar
    12    25    26   ar
    13    26    19    1
    14    19     1    1
    15     1     2   ar
    16     2     3   ar
    17     3     4   ar
    18     4     7    1
    19     7     8    2
    20     7     9    2
    21     7    10    1
    22    10    12    1
    23    12    13   ar
    24    13    14   ar
    25    14    15   ar
    26    15    16   ar
    27     4     5   ar
    28     5     6   ar
    29     6    17    1
    30    17    18    3
    31    32    28   ar
    32    26    20   ar
    33     6     1   ar
    34    16    12   ar
    35    10    11    1
@<TRIPOS>MOLECULE
*****
 32 35 0 0 0
SMALL
GASTEIGER

@<TRIPOS>ATOM
      1 C          62.8154   89.1278   11.9954 C.ar    1  UNL1        0.1549
      2 C          63.8076   89.3383   13.1006 C.ar    1  UNL1        0.0396
      3 C          64.6853   90.5548   13.0989 C.ar    1  UNL1        0.0234
      4 C          64.5707   91.5607   11.9920 C.ar    1  UNL1        0.1261
      5 C          63.5785   91.3501   10.8870 C.ar    1  UNL1        0.0335
      6 C          62.7009   90.1337   10.8887 C.ar    1  UNL1        0.1042
      7 S          65.4483   92.7771   11.9904 S.O2    1  UNL1        0.0751
      8 O          65.4536   92.7755   13.4903 O.2     1  UNL1       -0.1499
      9 O          65.4431   92.7788   10.4904 O.2     1  UNL1       -0.1499
     10 N          66.3260   93.9936   11.9887 N.pl3   1  UNL1       -0.1925
     11 H          66.8628   94.2144   12.7839 H       1  UNL1        0.1758
     12 C          66.3858   94.8736   10.7754 C.ar    1  UNL1        0.1977
     13 N          65.4121   95.9595   10.4251 N.ar    1  UNL1       -0.1997
     14 C          65.8543   96.5793    9.1327 C.ar    1  UNL1        0.2082
     15 N          67.1012   95.8764    8.6842 N.ar    1  UNL1       -0.1840
     16 S          67.4297   94.8222    9.6995 S.2     1  UNL1        0.0508
     17 C          61.7087   89.9232    9.7835 C.1     1  UNL1        0.1035
     18 N          60.7166   89.7127    8.6784 N.1     1  UNL1       -0.1907
     19 O          61.9378   87.9113   11.9971 O.3     1  UNL1       -0.4528
     20 C          62.3114   85.5466   10.9877 C.ar    1  UNL1        0.0527
     21 C          62.9239   84.1801   11.0723 C.ar    1  UNL1        0.0159
     22 C          63.7754   83.8115   12.2508 C.ar    1  UNL1        0.0579
     23 CL         64.3880   82.4448   12.3355 Cl      1  UNL1       -0.0822
     24 C          64.0144   84.8095   13.3448 C.ar    1  UNL1        0.0145
     25 C          63.4019   86.1761   13.2603 C.ar    1  UNL1        0.0384
     26 C          62.5504   86.5447   12.0817 C.ar    1  UNL1        0.1467
     27 C          63.0327   84.9962    7.8530 C.3     1  UNL1        0.1537
     28 N          61.7914   85.6623    8.3683 N.ar    1  UNL1       -0.2487
     29 N          60.6637   86.1923    7.5332 N.ar    1  UNL1       -0.1676
     30 C          59.6351   86.7728    8.4579 C.ar    1  UNL1        0.1217
     31 C          60.1272   86.6016    9.8645 C.ar    1  UNL1        0.0413
     32 C          61.4598   85.9153    9.8091 C.ar    1  UNL1        0.0825
@<TRIPOS>BOND
     1    27    28    1
     2    28    29   ar
     3    29    30   ar
     4    30    31   ar
     5    31    32   ar
     6    32    20    1
     7    20    21   ar
     8    21    22   ar
     9    22    23    1
    10    22    24   ar
    11    24    25   ar
    12    25    26   ar
    13    26    19    1
    14    19     1    1
    15     1     2   ar
    16     2     3   ar
    17     3     4   ar
    18     4     7    1
    19     7     8    2
    20     7     9    2
    21     7    10    1
    22    10    12    1
    23    12    13   ar
    24    13    14   ar
    25    14    15   ar
    26    15    16   ar
    27     4     5   ar
    28     5     6   ar
    29     6    17    1
    30    17    18    3
    31    32    28   ar
    32    26    20   ar
    33     6     1   ar
    34    16    12   ar
    35    10    11    1
@<TRIPOS>MOLECULE
*****
 32 35 0 0 0
SMALL
GASTEIGER

@<TRIPOS>ATOM
      1 C          64.2739   90.2280   13.2870 C.ar    1  UNL1        0.1549
      2 C          64.6902   89.3939   14.4622 C.ar    1  UNL1        0.0396
      3 C          64.3417   87.9356   14.5078 C.ar    1  UNL1        0.0234
      4 C          63.5769   87.3115   13.3783 C.ar    1  UNL1        0.1261
      5 C          63.1607   88.1457   12.2032 C.ar    1  UNL1        0.0335
      6 C          63.5092   89.6039   12.1576 C.ar    1  UNL1        0.1042
      7 S          63.2284   85.8533   13.4240 S.O2    1  UNL1        0.0751
      8 O          64.2730   85.6367   14.4785 O.2     1  UNL1       -0.1499
      9 O          62.1839   86.0699   12.3695 O.2     1  UNL1       -0.1499
     10 N          62.8799   84.3951   13.4696 N.pl3   1  UNL1       -0.1925
     11 H          62.4057   84.0265   14.2497 H       1  UNL1        0.1758
     12 C          63.2539   83.4984   12.3268 C.ar    1  UNL1        0.1977
     13 N          64.2491   83.8121   11.2493 N.ar    1  UNL1       -0.1997
     14 C          64.3086   82.6382   10.3173 C.ar    1  UNL1        0.2082
     15 N          63.3501   81.5990   10.8189 N.ar    1  UNL1       -0.1840
     16 S          62.6983   82.1307   12.0608 S.2     1  UNL1        0.0508
     17 C          63.0930   90.4381   10.9824 C.1     1  UNL1        0.1035
     18 N          62.6767   91.2722    9.8072 N.1     1  UNL1       -0.1907
     19 O          64.6224   91.6863   13.2413 O.3     1  UNL1       -0.4528
     20 C          66.9815   92.7587   13.4277 C.ar    1  UNL1        0.0527
     21 C          68.1052   93.2879   14.2686 C.ar    1  UNL1        0.0159
     22 C          67.9934   93.2740   15.7644 C.ar    1  UNL1        0.0579
     23 CL         69.1171   93.8033   16.6054 Cl      1  UNL1       -0.0822
     24 C          66.7580   92.7308   16.4191 C.ar    1  UNL1        0.0145
     25 C          65.6343   92.2016   15.5781 C.ar    1  UNL1        0.0384
     26 C          65.7461   92.2155   14.0824 C.ar    1  UNL1        0.1467
     27 C          65.8564   95.0909   11.4416 C.3     1  UNL1        0.1537
     28 N          66.5761   93.8446   11.0190 N.ar    1  UNL1       -0.2487
     29 N          66.9050   93.4514    9.6093 N.ar    1  UNL1       -0.1676
     30 C          67.6255   92.1364    9.6509 C.ar    1  UNL1        0.1217
     31 C          67.7419   91.7169   11.0863 C.ar    1  UNL1        0.0413
     32 C          67.0933   92.7726   11.9318 C.ar    1  UNL1        0.0825
@<TRIPOS>BOND
     1    27    28    1
     2    28    29   ar
     3    29    30   ar
     4    30    31   ar
     5    31    32   ar
     6    32    20    1
     7    20    21   ar
     8    21    22   ar
     9    22    23    1
    10    22    24   ar
    11    24    25   ar
    12    25    26   ar
    13    26    19    1
    14    19     1    1
    15     1     2   ar
    16     2     3   ar
    17     3     4   ar
    18     4     7    1
    19     7     8    2
    20     7     9    2
    21     7    10    1
    22    10    12    1
    23    12    13   ar
    24    13    14   ar
    25    14    15   ar
    26    15    16   ar
    27     4     5   ar
    28     5     6   ar
    29     6    17    1
    30    17    18    3
    31    32    28   ar
    32    26    20   ar
    33     6     1   ar
    34    16    12   ar
    35    10    11    1
@<TRIPOS>MOLECULE
*****
 32 35 0 0 0
SMALL
GASTEIGER

@<TRIPOS>ATOM
      1 C          62.7221   88.1291   12.3474 C.ar    1  UNL1        0.1549
      2 C          63.6429   88.2378   13.5266 C.ar    1  UNL1        0.0396
      3 C          64.4198   89.4999   13.7577 C.ar    1  UNL1        0.0234
      4 C          64.2759   90.6534   12.8096 C.ar    1  UNL1        0.1261
      5 C          63.3552   90.5448   11.6305 C.ar    1  UNL1        0.0335
      6 C          62.5782   89.2826   11.3994 C.ar    1  UNL1        0.1042
      7 S          65.0529   91.9156   13.0407 S.O2    1  UNL1        0.0751
      8 O          64.6240   91.9164   14.4781 O.2     1  UNL1       -0.1499
      9 O          65.4818   91.9147   11.6033 O.2     1  UNL1       -0.1499
     10 N          65.8298   93.1777   13.2718 N.pl3   1  UNL1       -0.1925
     11 H          65.5516   94.0142   12.8334 H       1  UNL1        0.1758
     12 C          67.0305   93.1653   14.1707 C.ar    1  UNL1        0.1977
     13 N          67.6084   94.3503   14.8862 N.ar    1  UNL1       -0.1997
     14 C          68.7992   93.8832   15.6697 C.ar    1  UNL1        0.2082
     15 N          68.9572   92.4095   15.4385 N.ar    1  UNL1       -0.1840
     16 S          67.8641   91.9659   14.5121 S.2     1  UNL1        0.0508
     17 C          61.6574   89.1740   10.2203 C.1     1  UNL1        0.1035
     18 N          60.7366   89.0654    9.0412 N.1     1  UNL1       -0.1907
     19 O          61.9452   86.8670   12.1163 O.3     1  UNL1       -0.4528
     20 C          63.2564   84.6346   12.3333 C.ar    1  UNL1        0.0527
     21 C          63.9210   83.4511   11.6950 C.ar    1  UNL1        0.0159
     22 C          63.9390   83.3164   10.2012 C.ar    1  UNL1        0.0579
     23 CL         64.6036   82.1328    9.5628 Cl      1  UNL1       -0.0822
     24 C          63.2923   84.3652    9.3457 C.ar    1  UNL1        0.0145
     25 C          62.6277   85.5488    9.9841 C.ar    1  UNL1        0.0384
     26 C          62.6098   85.6834   11.4779 C.ar    1  UNL1        0.1467
     27 C          61.6662   82.6894   14.4159 C.3     1  UNL1        0.1537
     28 N          62.5075   83.8752   14.7844 N.ar    1  UNL1       -0.2487
     29 N          62.7656   84.3752   16.1749 N.ar    1  UNL1       -0.1676
     30 C          63.6561   85.5783   16.0771 C.ar    1  UNL1        0.1217
     31 C          63.9484   85.8219   14.6261 C.ar    1  UNL1        0.0413
     32 C          63.2385   84.7693   13.8272 C.ar    1  UNL1        0.0825
@<TRIPOS>BOND
     1    27    28    1
     2    28    29   ar
     3    29    30   ar
     4    30    31   ar
     5    31    32   ar
     6    32    20    1
     7    20    21   ar
     8    21    22   ar
     9    22    23    1
    10    22    24   ar
    11    24    25   ar
    12    25    26   ar
    13    26    19    1
    14    19     1    1
    15     1     2   ar
    16     2     3   ar
    17     3     4   ar
    18     4     7    1
    19     7     8    2
    20     7     9    2
    21     7    10    1
    22    10    12    1
    23    12    13   ar
    24    13    14   ar
    25    14    15   ar
    26    15    16   ar
    27     4     5   ar
    28     5     6   ar
    29     6    17    1
    30    17    18    3
    31    32    28   ar
    32    26    20   ar
    33     6     1   ar
    34    16    12   ar
    35    10    11    1
@<TRIPOS>MOLECULE
*****
 32 35 0 0 0
SMALL
GASTEIGER

@<TRIPOS>ATOM
      1 C          62.9504   88.7436   12.4826 C.ar    1  UNL1        0.1549
      2 C          63.8529   88.6919   13.6797 C.ar    1  UNL1        0.0396
      3 C          64.7127   89.8723   14.0223 C.ar    1  UNL1        0.0234
      4 C          64.6700   91.1045   13.1678 C.ar    1  UNL1        0.1261
      5 C          63.7676   91.1561   11.9708 C.ar    1  UNL1        0.0335
      6 C          62.9078   89.9757   11.6282 C.ar    1  UNL1        0.1042
      7 S          65.5298   92.2849   13.5104 S.O2    1  UNL1        0.0751
      8 O          64.9701   92.2886   14.9021 O.2     1  UNL1       -0.1499
      9 O          66.0894   92.2812   12.1187 O.2     1  UNL1       -0.1499
     10 N          66.3895   93.4653   13.8530 N.pl3   1  UNL1       -0.1925
     11 H          66.1955   94.3465   13.4590 H       1  UNL1        0.1758
     12 C          67.5449   93.3033   14.7958 C.ar    1  UNL1        0.1977
     13 N          68.4225   94.4046   15.3123 N.ar    1  UNL1       -0.1997
     14 C          69.4455   93.7934   16.2233 C.ar    1  UNL1        0.2082
     15 N          69.2001   92.3143   16.2699 N.ar    1  UNL1       -0.1840
     16 S          68.0254   92.0114   15.3876 S.2     1  UNL1        0.0508
     17 C          62.0053   90.0274   10.4311 C.1     1  UNL1        0.1035
     18 N          61.1029   90.0791    9.2341 N.1     1  UNL1       -0.1907
     19 O          62.0907   87.5632   12.1400 O.3     1  UNL1       -0.4528
     20 C          62.4385   85.3316   10.8558 C.ar    1  UNL1        0.0527
     21 C          63.0440   83.9619   10.7718 C.ar    1  UNL1        0.0159
     22 C          63.9074   83.4539   11.8882 C.ar    1  UNL1        0.0579
     23 CL         64.5131   82.0841   11.8043 Cl      1  UNL1       -0.0822
     24 C          64.1653   84.3157   13.0886 C.ar    1  UNL1        0.0145
     25 C          63.5597   85.6854   13.1726 C.ar    1  UNL1        0.0384
     26 C          62.6963   86.1934   12.0561 C.ar    1  UNL1        0.1467
     27 C          62.9900   84.9221    7.6655 C.3     1  UNL1        0.1537
     28 N          61.8285   85.6514    8.2729 N.ar    1  UNL1       -0.2487
     29 N          60.7166   86.3205    7.5206 N.ar    1  UNL1       -0.1676
     30 C          59.7759   86.9224    8.5221 C.ar    1  UNL1        0.1217
     31 C          60.3064   86.6252    9.8933 C.ar    1  UNL1        0.0413
     32 C          61.5750   85.8397    9.7393 C.ar    1  UNL1        0.0825
@<TRIPOS>BOND
     1    27    28    1
     2    28    29   ar
     3    29    30   ar
     4    30    31   ar
     5    31    32   ar
     6    32    20    1
     7    20    21   ar
     8    21    22   ar
     9    22    23    1
    10    22    24   ar
    11    24    25   ar
    12    25    26   ar
    13    26    19    1
    14    19     1    1
    15     1     2   ar
    16     2     3   ar
    17     3     4   ar
    18     4     7    1
    19     7     8    2
    20     7     9    2
    21     7    10    1
    22    10    12    1
    23    12    13   ar
    24    13    14   ar
    25    14    15   ar
    26    15    16   ar
    27     4     5   ar
    28     5     6   ar
    29     6    17    1
    30    17    18    3
    31    32    28   ar
    32    26    20   ar
    33     6     1   ar
    34    16    12   ar
    35    10    11    1
