@<TRIPOS>MOLECULE
*****
 63 66 0 0 0
SMALL
GASTEIGER

@<TRIPOS>ATOM
      1 C          61.4212   92.1391    3.7162 C.3     1  UNL1        0.1953
      2 O          60.9188   91.2579    4.8212 O.3     1  UNL1       -0.4497
      3 C          60.8576   90.7090    6.2157 C.2     1  UNL1        0.3188
      4 O          59.7711   89.6814    6.0991 O.2     1  UNL1       -0.2500
      5 C          61.2482   90.5875    7.6589 C.3     1  UNL1        0.1263
      6 C          60.3114   89.6231    7.7821 C.3     1  UNL1        0.0142
      7 C          62.0230   90.9143    8.9011 C.3     1  UNL1        0.1306
      8 C          63.0481   91.6328    9.7274 C.3     1  UNL1        0.0575
      9 C          62.8724   90.9893   11.0710 C.3     1  UNL1        0.0051
     10 C          64.1462   92.6190    9.9951 C.3     1  UNL1        0.1448
     11 C          65.1274   93.7022    9.6578 C.3     1  UNL1        0.1183
     12 C          66.1777   94.4755   10.3985 C.3     1  UNL1        0.0321
     13 C          65.8222   94.6951    8.7739 C.3     1  UNL1        0.0387
     14 C          66.1103   95.4262    7.4962 C.3     1  UNL1        0.0789
     15 C          67.2080   96.3601    7.9119 C.3     1  UNL1        0.0096
     16 C          65.9420   95.7689    6.0456 C.2     1  UNL1        0.2221
     17 O          66.9697   96.8453    5.8581 O.2     1  UNL1       -0.2751
     18 N          65.3462   95.6640    4.6730 N.am    1  UNL1       -0.3035
     19 C          64.4262   95.1296    3.6156 C.3     1  UNL1        0.1008
     20 C          64.8236   95.9402    2.4177 C.3     1  UNL1        0.0239
     21 C          63.3408   94.2582    3.0563 C.3     1  UNL1        0.1560
     22 O          63.2870   94.7065    1.6258 O.3     1  UNL1       -0.3803
     23 C          62.2780   93.2004    3.0920 C.3     1  UNL1        0.1509
     24 C          61.3182   92.6016    2.1070 C.3     1  UNL1        0.0356
     25 O          62.4156   93.8131    1.7297 O.3     1  UNL1       -0.3808
     26 H          65.8582   96.3418    4.1753 H       1  UNL1        0.1495
     27 H          63.9449   95.4043    1.4807 H       1  UNL1        0.2105
     28 H          63.1103   94.4898    1.7482 H       1  UNL1        0.2105
     29 C          59.5221   92.6303    2.0126 C.3     1  UNL1        0.0039
     30 C          60.5691   91.7062    2.5601 C.3     1  UNL1        0.0462
     31 O          65.2196   93.2886   11.0967 O.3     1  UNL1       -0.3535
     32 C          65.4069   93.9482   11.5033 C.3     1  UNL1        0.1740
     33 O          61.4211   89.9720    9.9010 O.3     1  UNL1       -0.3323
     34 C          61.8093   88.5230    9.8943 C.3     1  UNL1        0.2375
     35 C          62.2813   87.8672   11.1581 C.3     1  UNL1        0.0910
     36 C          62.6694   86.4183   11.1514 C.3     1  UNL1        0.1246
     37 C          63.1439   85.0839   11.6455 C.3     1  UNL1        0.0324
     38 C          62.5855   85.6252    9.8810 C.3     1  UNL1        0.1623
     39 O          62.9736   84.1764    9.8743 O.3     1  UNL1       -0.3796
     40 C          62.1135   86.2810    8.6173 C.3     1  UNL1        0.1468
     41 C          62.0296   85.4880    7.3468 C.3     1  UNL1        0.0348
     42 O          61.7254   87.7299    8.6239 O.3     1  UNL1       -0.3304
     43 H          62.8616   83.8158    8.9808 H       1  UNL1        0.2105
     44 O          62.9181   86.7479   12.5934 O.3     1  UNL1       -0.3532
     45 C          63.6418   85.7710   13.4721 C.3     1  UNL1        0.1740
     46 O          64.4272   92.3855   11.4499 O.3     1  UNL1       -0.3278
     47 C          65.8408   92.2214   11.9238 C.3     1  UNL1        0.2785
     48 O          66.9504   92.0510   10.9289 O.3     1  UNL1       -0.3302
     49 C          68.3640   91.8868   11.4028 C.3     1  UNL1        0.1198
     50 C          69.4736   91.7164   10.4078 C.3     1  UNL1        0.0322
     51 C          68.6681   91.8931   12.8716 C.3     1  UNL1        0.0534
     52 C          67.5587   92.0635   13.8666 C.3     1  UNL1        0.1245
     53 C          66.1449   92.2277   13.3926 C.3     1  UNL1        0.2426
     54 O          65.2658   92.3754   14.5990 O.2     1  UNL1       -0.4466
     55 C          66.1363   92.3026   15.8185 C.2     1  UNL1        0.2833
     56 N          65.6713   92.4046   17.2410 N.2     1  UNL1       -0.2242
     57 N          67.5533   92.1098   15.3659 N.pl3   1  UNL1       -0.2603
     58 C          68.7540   91.9852   16.2561 C.3     1  UNL1        0.1166
     59 C          64.2145   92.5978   17.5418 C.3     1  UNL1        0.1309
     60 C          63.1933   91.6942   16.9167 C.3     1  UNL1        0.0381
     61 C          63.4911   90.2347   16.7403 C.3     1  UNL1        0.0596
     62 S          63.1876   89.5597   15.4356 S.3     1  UNL1       -0.1393
     63 C          64.2928   89.2803   14.4607 C.3     1  UNL1        0.0692
@<TRIPOS>BOND
     1    29    30    1
     2     1    30    1
     3     1     2    1
     4     2     3    1
     5     3     4    2
     6     3     5    1
     7     5     6    1
     8     5     7    1
     9     7    33    1
    10    34    33    1
    11    34    35    1
    12    35    36    1
    13    36    37    1
    14    36    44    1
    15    44    45    1
    16    36    38    1
    17    38    39    1
    18    38    40    1
    19    40    41    1
    20    40    42    1
    21     7     8    1
    22     8     9    1
    23     8    10    1
    24    10    46    1
    25    47    46    1
    26    47    48    1
    27    48    49    1
    28    49    50    1
    29    49    51    1
    30    52    51    1
    31    52    53    1
    32    53    54    1
    33    54    55    1
    34    55    56    2
    35    56    59    1
    36    59    60    1
    37    60    61    1
    38    61    62    1
    39    62    63    1
    40    55    57    1
    41    57    58    1
    42    10    11    1
    43    11    12    1
    44    11    31    1
    45    31    32    1
    46    11    13    1
    47    13    14    1
    48    14    15    1
    49    14    16    1
    50    16    17    2
    51    16    18   am
    52    18    19    1
    53    19    20    1
    54    19    21    1
    55    21    22    1
    56    21    23    1
    57    23    24    1
    58    23    25    1
    59    23     1    1
    60    42    34    1
    61    53    47    1
    62    57    52    1
    63    39    43    1
    64    18    26    1
    65    22    27    1
    66    25    28    1
@<TRIPOS>MOLECULE
*****
 63 66 0 0 0
SMALL
GASTEIGER

@<TRIPOS>ATOM
      1 C          61.3489   92.1154    3.8094 C.3     1  UNL1        0.1953
      2 O          60.8437   91.2440    4.9209 O.3     1  UNL1       -0.4497
      3 C          60.7865   90.6998    6.3174 C.2     1  UNL1        0.3188
      4 O          59.6853   89.6866    6.2125 O.2     1  UNL1       -0.2500
      5 C          61.1873   90.5768    7.7577 C.3     1  UNL1        0.1263
      6 C          60.2386   89.6255    7.8912 C.3     1  UNL1        0.0142
      7 C          61.9766   90.8964    8.9925 C.3     1  UNL1        0.1306
      8 C          63.0181   91.6032    9.8085 C.3     1  UNL1        0.0575
      9 C          62.8448   90.9657   11.1552 C.3     1  UNL1        0.0051
     10 C          64.1316   92.5751   10.0644 C.3     1  UNL1        0.1448
     11 C          65.1247   93.6439    9.7161 C.3     1  UNL1        0.1183
     12 C          66.1913   94.4050   10.4460 C.3     1  UNL1        0.0321
     13 C          65.8255   94.6250    8.8237 C.3     1  UNL1        0.0387
     14 C          66.1130   95.3487    7.5417 C.3     1  UNL1        0.0789
     15 C          67.2266   96.2687    7.9458 C.3     1  UNL1        0.0096
     16 C          65.9374   95.6898    6.0916 C.2     1  UNL1        0.2221
     17 O          66.9780   96.7517    5.8927 O.2     1  UNL1       -0.2751
     18 N          65.3290   95.5893    4.7242 N.am    1  UNL1       -0.3035
     19 C          64.3931   95.0646    3.6759 C.3     1  UNL1        0.1008
     20 C          64.7917   95.8665    2.4725 C.3     1  UNL1        0.0239
     21 C          63.2915   94.2065    3.1279 C.3     1  UNL1        0.1560
     22 O          63.2320   94.6516    1.6967 O.3     1  UNL1       -0.3803
     23 C          62.2148   93.1633    3.1752 C.3     1  UNL1        0.1509
     24 C          61.2389   92.5750    2.1998 C.3     1  UNL1        0.0356
     25 O          62.3495   93.7704    1.8102 O.3     1  UNL1       -0.3808
     26 H          65.8460   96.2588    4.2204 H       1  UNL1        0.1495
     27 H          63.8981   95.3401    1.5442 H       1  UNL1        0.2105
     28 H          63.0534   94.4377    1.8211 H       1  UNL1        0.2105
     29 C          59.2985   92.5245    2.2672 C.3     1  UNL1        0.0039
     30 C          60.4816   91.6910    2.6615 C.3     1  UNL1        0.0462
     31 O          65.2230   93.2330   11.1554 O.3     1  UNL1       -0.3535
     32 C          65.4519   93.8840   11.5545 C.3     1  UNL1        0.1740
     33 O          61.3703   89.9650   10.0000 O.3     1  UNL1       -0.3323
     34 C          61.8474   88.5458   10.0918 C.3     1  UNL1        0.2375
     35 C          61.7878   87.6550    8.8864 C.3     1  UNL1        0.0910
     36 C          62.2649   86.2359    8.9782 C.3     1  UNL1        0.1246
     37 C          62.5954   84.8308    8.5704 C.3     1  UNL1        0.0324
     38 C          62.8016   85.7075   10.2754 C.3     1  UNL1        0.1623
     39 O          63.2787   84.2885   10.3673 O.3     1  UNL1       -0.3796
     40 C          62.8612   86.5983   11.4808 C.3     1  UNL1        0.1468
     41 C          63.3980   86.0700   12.7780 C.3     1  UNL1        0.0348
     42 O          62.3842   88.0174   11.3890 O.3     1  UNL1       -0.3304
     43 H          63.5914   84.1102   11.2680 H       1  UNL1        0.2105
     44 O          61.8429   86.2763    7.5394 O.3     1  UNL1       -0.3532
     45 C          61.9089   85.0326    6.7033 C.3     1  UNL1        0.1740
     46 O          64.4214   92.3417   11.5175 O.3     1  UNL1       -0.3278
     47 C          65.8384   92.1864   11.9842 C.3     1  UNL1        0.2785
     48 O          66.9435   92.0195   10.9837 O.3     1  UNL1       -0.3302
     49 C          68.3606   91.8642   11.4504 C.3     1  UNL1        0.1198
     50 C          69.4657   91.6973   10.4499 C.3     1  UNL1        0.0322
     51 C          68.6725   91.8757   12.9175 C.3     1  UNL1        0.0534
     52 C          67.5675   92.0426   13.9181 C.3     1  UNL1        0.1245
     53 C          66.1504   92.1980   13.4513 C.3     1  UNL1        0.2426
     54 O          65.2770   92.3439   14.6621 O.2     1  UNL1       -0.4466
     55 C          66.1544   92.2788   15.8771 C.2     1  UNL1        0.2833
     56 N          65.6965   92.3819   17.3017 N.2     1  UNL1       -0.2242
     57 N          67.5699   92.0926   15.4172 N.pl3   1  UNL1       -0.2603
     58 C          68.7761   91.9767   16.3013 C.3     1  UNL1        0.1166
     59 C          64.2403   92.5679   17.6100 C.3     1  UNL1        0.1309
     60 C          63.2098   91.7582   16.8803 C.3     1  UNL1        0.0381
     61 C          63.4173   90.2864   16.6788 C.3     1  UNL1        0.0596
     62 S          63.2682   89.6882   15.3113 S.3     1  UNL1       -0.1393
     63 C          64.4398   89.0230   14.6518 C.3     1  UNL1        0.0692
@<TRIPOS>BOND
     1    29    30    1
     2     1    30    1
     3     1     2    1
     4     2     3    1
     5     3     4    2
     6     3     5    1
     7     5     6    1
     8     5     7    1
     9     7    33    1
    10    34    33    1
    11    34    35    1
    12    35    36    1
    13    36    37    1
    14    36    44    1
    15    44    45    1
    16    36    38    1
    17    38    39    1
    18    38    40    1
    19    40    41    1
    20    40    42    1
    21     7     8    1
    22     8     9    1
    23     8    10    1
    24    10    46    1
    25    47    46    1
    26    47    48    1
    27    48    49    1
    28    49    50    1
    29    49    51    1
    30    52    51    1
    31    52    53    1
    32    53    54    1
    33    54    55    1
    34    55    56    2
    35    56    59    1
    36    59    60    1
    37    60    61    1
    38    61    62    1
    39    62    63    1
    40    55    57    1
    41    57    58    1
    42    10    11    1
    43    11    12    1
    44    11    31    1
    45    31    32    1
    46    11    13    1
    47    13    14    1
    48    14    15    1
    49    14    16    1
    50    16    17    2
    51    16    18   am
    52    18    19    1
    53    19    20    1
    54    19    21    1
    55    21    22    1
    56    21    23    1
    57    23    24    1
    58    23    25    1
    59    23     1    1
    60    42    34    1
    61    53    47    1
    62    57    52    1
    63    39    43    1
    64    18    26    1
    65    22    27    1
    66    25    28    1
@<TRIPOS>MOLECULE
*****
 63 66 0 0 0
SMALL
GASTEIGER

@<TRIPOS>ATOM
      1 C          62.8757   82.9506   10.6744 C.3     1  UNL1        0.1953
      2 O          62.8077   84.1526    9.7797 O.3     1  UNL1       -0.4497
      3 C          62.7761   85.6155    9.4502 C.2     1  UNL1        0.3188
      4 O          62.6755   85.5961    7.9536 O.2     1  UNL1       -0.2500
      5 C          62.7863   87.0867    9.7430 C.3     1  UNL1        0.1263
      6 C          62.6955   87.3038    8.4136 C.3     1  UNL1        0.0142
      7 C          62.8366   88.3115   10.6075 C.3     1  UNL1        0.1306
      8 C          62.9182   89.0783   11.8941 C.3     1  UNL1        0.0575
      9 C          62.8767   90.4988   11.4137 C.3     1  UNL1        0.0051
     10 C          63.0171   89.2544   13.3804 C.3     1  UNL1        0.1448
     11 C          63.1161   88.8095   14.8094 C.3     1  UNL1        0.1183
     12 C          63.2017   89.4844   16.1462 C.3     1  UNL1        0.0321
     13 C          63.1981   87.8203   15.9341 C.3     1  UNL1        0.0387
     14 C          63.2490   86.4581   16.5599 C.3     1  UNL1        0.0789
     15 C          63.3451   86.7889   18.0198 C.3     1  UNL1        0.0096
     16 C          63.2600   84.9582   16.5787 C.2     1  UNL1        0.2221
     17 O          63.3606   84.6654   18.0464 O.2     1  UNL1       -0.2751
     18 N          63.2290   83.5802   15.9871 N.am    1  UNL1       -0.3035
     19 C          63.1616   82.5621   14.8875 C.3     1  UNL1        0.1008
     20 C          63.2214   81.2729   15.6520 C.3     1  UNL1        0.0239
     21 C          63.0694   82.0801   13.4700 C.3     1  UNL1        0.1560
     22 O          63.0907   80.5904   13.6452 O.3     1  UNL1       -0.3803
     23 C          62.9682   82.2176   11.9798 C.3     1  UNL1        0.1509
     24 C          62.8957   81.2789   10.8121 C.3     1  UNL1        0.0356
     25 O          63.0064   80.7811   12.4104 O.3     1  UNL1       -0.3808
     26 H          63.2867   83.0119   16.7889 H       1  UNL1        0.1495
     27 H          63.1556   80.3768   14.5891 H       1  UNL1        0.2105
     28 H          63.0718   80.7350   13.3770 H       1  UNL1        0.2105
     29 C          63.1987   80.4354   10.1094 C.3     1  UNL1        0.0039
     30 C          62.8165   81.8230    9.6870 C.3     1  UNL1        0.0462
     31 O          63.0982   90.3043   14.6864 O.3     1  UNL1       -0.3535
     32 C          62.4826   90.5536   15.1272 C.3     1  UNL1        0.1740
     33 O          62.7612   89.4131    9.5922 O.3     1  UNL1       -0.3323
     34 C          61.6264   89.4532    8.6119 C.3     1  UNL1        0.2375
     35 C          60.4431   88.5501    8.7970 C.3     1  UNL1        0.0910
     36 C          59.3084   88.5902    7.8168 C.3     1  UNL1        0.1246
     37 C          57.9990   88.2633    7.1624 C.3     1  UNL1        0.0324
     38 C          59.3570   89.5333    6.6514 C.3     1  UNL1        0.1623
     39 O          58.2224   89.5734    5.6712 O.3     1  UNL1       -0.3796
     40 C          60.5403   90.4364    6.4663 C.3     1  UNL1        0.1468
     41 C          60.5889   91.3796    5.3009 C.3     1  UNL1        0.0348
     42 O          61.6750   90.3964    7.4465 O.3     1  UNL1       -0.3304
     43 H          58.4115   90.2320    4.9846 H       1  UNL1        0.2105
     44 O          58.8051   87.5335    8.7549 O.3     1  UNL1       -0.3532
     45 C          59.3818   87.4194   10.1349 C.3     1  UNL1        0.1740
     46 O          63.0167   90.7481   13.5182 O.3     1  UNL1       -0.3278
     47 C          64.0157   91.4189   14.4137 C.3     1  UNL1        0.2785
     48 O          63.6419   91.7709   15.8231 O.3     1  UNL1       -0.3302
     49 C          64.6409   92.4417   16.7187 C.3     1  UNL1        0.1198
     50 C          64.2671   92.7937   18.1281 C.3     1  UNL1        0.0322
     51 C          66.0136   92.7605   16.2049 C.3     1  UNL1        0.0534
     52 C          66.3874   92.4085   14.7955 C.3     1  UNL1        0.1245
     53 C          65.3884   91.7377   13.8999 C.3     1  UNL1        0.2426
     54 O          66.0387   91.5121   12.5671 O.2     1  UNL1       -0.4466
     55 C          67.4396   92.0436   12.6391 C.2     1  UNL1        0.2833
     56 N          68.4479   92.0244   11.5288 N.2     1  UNL1       -0.2242
     57 N          67.6551   92.5975   14.0163 N.pl3   1  UNL1       -0.2603
     58 C          68.9167   93.2295   14.5249 C.3     1  UNL1        0.1166
     59 C          68.0870   91.4339   10.1979 C.3     1  UNL1        0.1309
     60 C          68.3370   92.2113    8.9397 C.3     1  UNL1        0.0381
     61 C          68.2800   93.7101    8.9604 C.3     1  UNL1        0.0596
     62 S          66.9791   94.4075    9.2274 S.3     1  UNL1       -0.1393
     63 C          66.8113   95.2321   10.4692 C.3     1  UNL1        0.0692
@<TRIPOS>BOND
     1    29    30    1
     2     1    30    1
     3     1     2    1
     4     2     3    1
     5     3     4    2
     6     3     5    1
     7     5     6    1
     8     5     7    1
     9     7    33    1
    10    34    33    1
    11    34    35    1
    12    35    36    1
    13    36    37    1
    14    36    44    1
    15    44    45    1
    16    36    38    1
    17    38    39    1
    18    38    40    1
    19    40    41    1
    20    40    42    1
    21     7     8    1
    22     8     9    1
    23     8    10    1
    24    10    46    1
    25    47    46    1
    26    47    48    1
    27    48    49    1
    28    49    50    1
    29    49    51    1
    30    52    51    1
    31    52    53    1
    32    53    54    1
    33    54    55    1
    34    55    56    2
    35    56    59    1
    36    59    60    1
    37    60    61    1
    38    61    62    1
    39    62    63    1
    40    55    57    1
    41    57    58    1
    42    10    11    1
    43    11    12    1
    44    11    31    1
    45    31    32    1
    46    11    13    1
    47    13    14    1
    48    14    15    1
    49    14    16    1
    50    16    17    2
    51    16    18   am
    52    18    19    1
    53    19    20    1
    54    19    21    1
    55    21    22    1
    56    21    23    1
    57    23    24    1
    58    23    25    1
    59    23     1    1
    60    42    34    1
    61    53    47    1
    62    57    52    1
    63    39    43    1
    64    18    26    1
    65    22    27    1
    66    25    28    1
