@<TRIPOS>MOLECULE
*****
 30 32 0 0 0
SMALL
GASTEIGER

@<TRIPOS>ATOM
      1 C          62.1550   87.4089   11.1346 C.3     1  UNL1        0.1628
      2 O          63.0284   87.9451   12.2299 O.3     1  UNL1       -0.3318
      3 C          63.1154   89.4336   12.0666 C.3     1  UNL1        0.2430
      4 C          62.2958   89.8174   10.8705 C.3     1  UNL1        0.2390
      5 F          62.1036   91.2083   10.3429 F       1  UNL1       -0.2298
      6 C          61.7022   88.5661   10.2944 C.3     1  UNL1        0.1760
      7 O          60.8121   88.4860    9.0897 O.3     1  UNL1       -0.3792
      8 H          60.5672   87.5612    8.9296 H       1  UNL1        0.2106
      9 N          63.8867   90.3734   12.9453 N.ar    1  UNL1       -0.2692
     10 C          63.9204   90.3510   14.4448 C.ar    1  UNL1        0.1816
     11 N          64.8142   91.4643   14.9049 N.ar    1  UNL1       -0.2194
     12 C          65.3329   92.1747   13.6899 C.ar    1  UNL1        0.1481
     13 C          66.2531   93.3483   13.5298 C.ar    1  UNL1        0.1480
     14 N          66.8264   94.0225   14.7410 N.pl3   1  UNL1       -0.3413
     15 N          66.6001   93.8478   12.1587 N.ar    1  UNL1       -0.2078
     16 C          66.0269   93.1735   10.9476 C.ar    1  UNL1        0.2015
     17 N          65.1066   91.9999   11.1076 N.ar    1  UNL1       -0.2048
     18 C          64.7597   91.5004   12.4787 C.ar    1  UNL1        0.1690
     19 H          66.5986   93.6947   15.6409 H       1  UNL1        0.1438
     20 H          67.4304   94.7929   14.6359 H       1  UNL1        0.1438
     21 C          61.7972   85.9684   10.9176 C.3     1  UNL1        0.1050
     22 C          62.8847   85.3550    8.6392 C.3     1  UNL1        0.0900
     23 N          62.6966   85.0867   10.1030 N.3     1  UNL1       -0.2656
     24 C          63.4080   83.9366   10.7522 C.3     1  UNL1        0.0987
     25 C          62.7441   83.1729   11.8594 C.2     1  UNL1       -0.0120
     26 C          63.0990   83.4623   13.2878 C.2     1  UNL1       -0.0125
     27 C          64.1177   84.5155   13.6089 C.3     1  UNL1        0.0916
     28 N          63.6861   85.8133   14.2248 N.3     1  UNL1       -0.3175
     29 H          63.1100   86.3300   13.5603 H       1  UNL1        0.1192
     30 H          64.5090   86.3667   14.4635 H       1  UNL1        0.1192
@<TRIPOS>BOND
     1    22    23    1
     2    23    24    1
     3    24    25    1
     4    25    26    2
     5    26    27    1
     6    27    28    1
     7    23    21    1
     8     1    21    1
     9     1     2    1
    10     2     3    1
    11     3     9    1
    12     9    10   ar
    13    10    11   ar
    14    11    12   ar
    15    12    13   ar
    16    13    14    1
    17    13    15   ar
    18    15    16   ar
    19    16    17   ar
    20    17    18   ar
    21     3     4    1
    22     4     5    1
    23     4     6    1
    24     6     7    1
    25     6     1    1
    26    18     9   ar
    27    18    12   ar
    28    28    29    1
    29    28    30    1
    30    14    19    1
    31    14    20    1
    32     7     8    1
@<TRIPOS>MOLECULE
*****
 30 32 0 0 0
SMALL
GASTEIGER

@<TRIPOS>ATOM
      1 C          62.0031   88.7844   11.1543 C.3     1  UNL1        0.1628
      2 O          62.6136   87.6229   11.8811 O.3     1  UNL1       -0.3318
      3 C          62.3157   86.3782   11.0988 C.3     1  UNL1        0.2430
      4 C          61.5211   86.7704    9.8886 C.3     1  UNL1        0.2390
      5 F          61.0095   85.8390    8.8300 F       1  UNL1       -0.2298
      6 C          61.3278   88.2575    9.9228 C.3     1  UNL1        0.1760
      7 O          60.5891   89.0743    8.9045 O.3     1  UNL1       -0.3792
      8 H          60.6115   90.0092    9.1619 H       1  UNL1        0.2106
      9 N          62.7383   84.9858   11.4630 N.ar    1  UNL1       -0.2692
     10 C          63.2038   83.9274   10.5074 C.ar    1  UNL1        0.1816
     11 N          63.5227   82.6948   11.3005 N.ar    1  UNL1       -0.2194
     12 C          63.2543   82.9914   12.7462 C.ar    1  UNL1        0.1481
     13 C          63.3888   82.1551   13.9841 C.ar    1  UNL1        0.1480
     14 N          63.8736   80.7392   13.8837 N.pl3   1  UNL1       -0.3413
     15 N          63.0384   82.7348   15.3225 N.ar    1  UNL1       -0.2078
     16 C          62.5536   84.1507   15.4229 C.ar    1  UNL1        0.2015
     17 N          62.4191   84.9870   14.1850 N.ar    1  UNL1       -0.2048
     18 C          62.7695   84.4073   12.8466 C.ar    1  UNL1        0.1690
     19 H          64.1036   80.3587   13.0053 H       1  UNL1        0.1438
     20 H          63.9618   80.1903   14.6963 H       1  UNL1        0.1438
     21 C          62.0581   90.2207   11.5836 C.3     1  UNL1        0.1050
     22 C          64.1622   91.6198   10.9794 C.3     1  UNL1        0.0900
     23 N          63.3676   90.8351   11.9807 N.3     1  UNL1       -0.2656
     24 C          63.8825   90.6647   13.3793 C.3     1  UNL1        0.0987
     25 C          65.2704   91.1148   13.7275 C.2     1  UNL1       -0.0120
     26 C          65.5601   91.6647   15.0928 C.2     1  UNL1       -0.0125
     27 C          64.4619   91.7643   16.1097 C.3     1  UNL1        0.0916
     28 N          64.5220   92.8158   17.1778 N.3     1  UNL1       -0.3175
     29 H          65.3109   92.6274   17.7963 H       1  UNL1        0.1192
     30 H          63.6564   92.8025   17.7171 H       1  UNL1        0.1192
@<TRIPOS>BOND
     1    22    23    1
     2    23    24    1
     3    24    25    1
     4    25    26    2
     5    26    27    1
     6    27    28    1
     7    23    21    1
     8     1    21    1
     9     1     2    1
    10     2     3    1
    11     3     9    1
    12     9    10   ar
    13    10    11   ar
    14    11    12   ar
    15    12    13   ar
    16    13    14    1
    17    13    15   ar
    18    15    16   ar
    19    16    17   ar
    20    17    18   ar
    21     3     4    1
    22     4     5    1
    23     4     6    1
    24     6     7    1
    25     6     1    1
    26    18     9   ar
    27    18    12   ar
    28    28    29    1
    29    28    30    1
    30    14    19    1
    31    14    20    1
    32     7     8    1
@<TRIPOS>MOLECULE
*****
 30 32 0 0 0
SMALL
GASTEIGER

@<TRIPOS>ATOM
      1 C          63.8612   86.6765   15.5568 C.3     1  UNL1        0.1628
      2 O          64.2407   87.4825   14.3500 O.3     1  UNL1       -0.3318
      3 C          63.9927   88.9287   14.6618 C.3     1  UNL1        0.2430
      4 C          63.4600   89.0164   16.0612 C.3     1  UNL1        0.2390
      5 F          63.0760   90.2750   16.7811 F       1  UNL1       -0.2298
      6 C          63.3787   87.6245   16.6145 C.3     1  UNL1        0.1760
      7 O          62.8992   87.2469   17.9846 O.3     1  UNL1       -0.3792
      8 H          62.9470   86.2838   18.0899 H       1  UNL1        0.2106
      9 N          64.2349   90.0842   13.7365 N.ar    1  UNL1       -0.2692
     10 C          63.5477   90.3222   12.4246 C.ar    1  UNL1        0.1816
     11 N          64.0950   91.5897   11.8380 N.ar    1  UNL1       -0.2194
     12 C          65.1204   92.1349   12.7874 C.ar    1  UNL1        0.1481
     13 C          65.9865   93.3584   12.7350 C.ar    1  UNL1        0.1480
     14 N          65.9001   94.2889   11.5616 N.pl3   1  UNL1       -0.3413
     15 N          66.9392   93.6515   13.8560 N.ar    1  UNL1       -0.2078
     16 C          67.0256   92.7210   15.0293 C.ar    1  UNL1        0.2015
     17 N          66.1595   91.4975   15.0817 N.ar    1  UNL1       -0.2048
     18 C          65.2069   91.2044   13.9607 C.ar    1  UNL1        0.1690
     19 H          65.2748   94.0965   10.8259 H       1  UNL1        0.1438
     20 H          66.4686   95.0919   11.5273 H       1  UNL1        0.1438
     21 C          63.9489   85.1844   15.6837 C.3     1  UNL1        0.1050
     22 C          62.3145   83.3285   14.8872 C.3     1  UNL1        0.0900
     23 N          63.4132   84.3061   14.5921 N.3     1  UNL1       -0.2656
     24 C          63.9763   84.4054   13.2053 C.3     1  UNL1        0.0987
     25 C          63.2411   83.7901   12.0516 C.2     1  UNL1       -0.0120
     26 C          62.3969   84.6485   11.1567 C.2     1  UNL1       -0.0125
     27 C          62.2880   86.1219   11.4155 C.3     1  UNL1        0.0916
     28 N          60.9380   86.7686   11.5121 N.3     1  UNL1       -0.3175
     29 H          60.4719   86.7195   10.6062 H       1  UNL1        0.1192
     30 H          61.0476   87.7451   11.7856 H       1  UNL1        0.1192
@<TRIPOS>BOND
     1    22    23    1
     2    23    24    1
     3    24    25    1
     4    25    26    2
     5    26    27    1
     6    27    28    1
     7    23    21    1
     8     1    21    1
     9     1     2    1
    10     2     3    1
    11     3     9    1
    12     9    10   ar
    13    10    11   ar
    14    11    12   ar
    15    12    13   ar
    16    13    14    1
    17    13    15   ar
    18    15    16   ar
    19    16    17   ar
    20    17    18   ar
    21     3     4    1
    22     4     5    1
    23     4     6    1
    24     6     7    1
    25     6     1    1
    26    18     9   ar
    27    18    12   ar
    28    28    29    1
    29    28    30    1
    30    14    19    1
    31    14    20    1
    32     7     8    1
@<TRIPOS>MOLECULE
*****
 30 32 0 0 0
SMALL
GASTEIGER

@<TRIPOS>ATOM
      1 C          62.7102   89.1856   11.7391 C.3     1  UNL1        0.1628
      2 O          63.1471   87.8863   12.3481 O.3     1  UNL1       -0.3318
      3 C          62.5964   86.7723   11.5080 C.3     1  UNL1        0.2430
      4 C          61.8192   87.3831   10.3800 C.3     1  UNL1        0.2390
      5 F          61.0982   86.6340    9.2988 F       1  UNL1       -0.2298
      6 C          61.8894   88.8747   10.5227 C.3     1  UNL1        0.1760
      7 O          61.2511   89.8789    9.6095 O.3     1  UNL1       -0.3792
      8 H          61.4492   90.7745    9.9248 H       1  UNL1        0.2106
      9 N          62.7892   85.3051   11.7531 N.ar    1  UNL1       -0.2692
     10 C          62.9622   84.2506   10.7005 C.ar    1  UNL1        0.1816
     11 N          63.1228   82.9286   11.3907 N.ar    1  UNL1       -0.2194
     12 C          63.0490   83.1660   12.8700 C.ar    1  UNL1        0.1481
     13 C          63.1429   82.2345   14.0419 C.ar    1  UNL1        0.1480
     14 N          63.3491   80.7657   13.8179 N.pl3   1  UNL1       -0.3413
     15 N          63.0307   82.7718   15.4378 N.ar    1  UNL1       -0.2078
     16 C          62.8245   84.2406   15.6618 C.ar    1  UNL1        0.2015
     17 N          62.7306   85.1721   14.4899 N.ar    1  UNL1       -0.2048
     18 C          62.8429   84.6348   13.0940 C.ar    1  UNL1        0.1690
     19 H          63.4227   80.4131   12.9017 H       1  UNL1        0.1438
     20 H          63.4107   80.1544   14.5871 H       1  UNL1        0.1438
     21 C          63.0367   90.5555   12.2559 C.3     1  UNL1        0.1050
     22 C          63.2936   90.1181   14.8040 C.3     1  UNL1        0.0900
     23 N          63.8150   90.7111   13.5287 N.3     1  UNL1       -0.2656
     24 C          65.1149   91.4598   13.5262 C.3     1  UNL1        0.0987
     25 C          65.9131   91.5808   14.7904 C.2     1  UNL1       -0.0120
     26 C          67.3969   91.7908   14.7233 C.2     1  UNL1       -0.0125
     27 C          68.0823   91.8798   13.3920 C.3     1  UNL1        0.0916
     28 N          69.5795   91.8306   13.3146 N.3     1  UNL1       -0.3175
     29 H          69.9705   92.6588   13.7636 H       1  UNL1        0.1192
     30 H          69.8687   91.8055   12.3368 H       1  UNL1        0.1192
@<TRIPOS>BOND
     1    22    23    1
     2    23    24    1
     3    24    25    1
     4    25    26    2
     5    26    27    1
     6    27    28    1
     7    23    21    1
     8     1    21    1
     9     1     2    1
    10     2     3    1
    11     3     9    1
    12     9    10   ar
    13    10    11   ar
    14    11    12   ar
    15    12    13   ar
    16    13    14    1
    17    13    15   ar
    18    15    16   ar
    19    16    17   ar
    20    17    18   ar
    21     3     4    1
    22     4     5    1
    23     4     6    1
    24     6     7    1
    25     6     1    1
    26    18     9   ar
    27    18    12   ar
    28    28    29    1
    29    28    30    1
    30    14    19    1
    31    14    20    1
    32     7     8    1
@<TRIPOS>MOLECULE
*****
 30 32 0 0 0
SMALL
GASTEIGER

@<TRIPOS>ATOM
      1 C          61.9931   88.7560   11.2236 C.3     1  UNL1        0.1628
      2 O          62.5957   87.5862   11.9436 O.3     1  UNL1       -0.3318
      3 C          62.3126   86.3516   11.1400 C.3     1  UNL1        0.2430
      4 C          61.5352   86.7585    9.9235 C.3     1  UNL1        0.2390
      5 F          61.0418   85.8404    8.8447 F       1  UNL1       -0.2298
      6 C          61.3376   88.2445    9.9751 C.3     1  UNL1        0.1760
      7 O          60.6122   89.0734    8.9571 O.3     1  UNL1       -0.3792
      8 H          60.6283   90.0048    9.2276 H       1  UNL1        0.2106
      9 N          62.7333   84.9553   11.4914 N.ar    1  UNL1       -0.2692
     10 C          63.2520   83.9235   10.5341 C.ar    1  UNL1        0.1816
     11 N          63.5483   82.6762   11.3128 N.ar    1  UNL1       -0.2194
     12 C          63.2127   82.9371   12.7514 C.ar    1  UNL1        0.1481
     13 C          63.3007   82.0740   13.9750 C.ar    1  UNL1        0.1480
     14 N          63.8045   80.6655   13.8647 N.pl3   1  UNL1       -0.3413
     15 N          62.8850   82.6196   15.3090 N.ar    1  UNL1       -0.2078
     16 C          62.3813   84.0281   15.4193 C.ar    1  UNL1        0.2015
     17 N          62.2933   84.8912   14.1957 N.ar    1  UNL1       -0.2048
     18 C          62.7090   84.3457   12.8617 C.ar    1  UNL1        0.1690
     19 H          64.0773   80.3074   12.9891 H       1  UNL1        0.1438
     20 H          63.8622   80.0990   14.6678 H       1  UNL1        0.1438
     21 C          62.0381   90.1864   11.6733 C.3     1  UNL1        0.1050
     22 C          63.8007   91.6169   10.4095 C.3     1  UNL1        0.0900
     23 N          63.3378   90.9353   11.6630 N.3     1  UNL1       -0.2656
     24 C          64.1745   91.0025   12.9062 C.3     1  UNL1        0.0987
     25 C          63.5255   90.8910   14.2539 C.2     1  UNL1       -0.0120
     26 C          63.7402   89.6644   15.0904 C.2     1  UNL1       -0.0125
     27 C          64.6038   88.5497   14.5791 C.3     1  UNL1        0.0916
     28 N          64.0875   87.1413   14.5775 N.3     1  UNL1       -0.3175
     29 H          63.9542   86.8270   15.5386 H       1  UNL1        0.1192
     30 H          64.7604   86.5330   14.1110 H       1  UNL1        0.1192
@<TRIPOS>BOND
     1    22    23    1
     2    23    24    1
     3    24    25    1
     4    25    26    2
     5    26    27    1
     6    27    28    1
     7    23    21    1
     8     1    21    1
     9     1     2    1
    10     2     3    1
    11     3     9    1
    12     9    10   ar
    13    10    11   ar
    14    11    12   ar
    15    12    13   ar
    16    13    14    1
    17    13    15   ar
    18    15    16   ar
    19    16    17   ar
    20    17    18   ar
    21     3     4    1
    22     4     5    1
    23     4     6    1
    24     6     7    1
    25     6     1    1
    26    18     9   ar
    27    18    12   ar
    28    28    29    1
    29    28    30    1
    30    14    19    1
    31    14    20    1
    32     7     8    1
@<TRIPOS>MOLECULE
*****
 30 32 0 0 0
SMALL
GASTEIGER

@<TRIPOS>ATOM
      1 C          64.3001   90.4012   14.1994 C.3     1  UNL1        0.1628
      2 O          64.4226   88.9863   13.7165 O.3     1  UNL1       -0.3318
      3 C          63.9714   88.0785   14.8220 C.3     1  UNL1        0.2430
      4 C          63.5701   88.9322   15.9881 C.3     1  UNL1        0.2390
      5 F          63.0559   88.4373   17.3075 F       1  UNL1       -0.2298
      6 C          63.7732   90.3677   15.6035 C.3     1  UNL1        0.1760
      7 O          63.4979   91.5603   16.4705 O.3     1  UNL1       -0.3792
      8 H          63.7136   92.3709   15.9834 H       1  UNL1        0.2106
      9 N          63.9290   86.5799   14.7703 N.ar    1  UNL1       -0.2692
     10 C          64.3579   85.6475   15.8643 C.ar    1  UNL1        0.1816
     11 N          64.1442   84.2421   15.3856 N.ar    1  UNL1       -0.2194
     12 C          63.5833   84.3059   13.9959 C.ar    1  UNL1        0.1481
     13 C          63.1766   83.2350   13.0276 C.ar    1  UNL1        0.1480
     14 N          63.3095   81.7901   13.4079 N.pl3   1  UNL1       -0.3413
     15 N          62.6368   83.6090   11.6790 N.ar    1  UNL1       -0.2078
     16 C          62.5038   85.0539   11.2987 C.ar    1  UNL1        0.2015
     17 N          62.9106   86.1248   12.2670 N.ar    1  UNL1       -0.2048
     18 C          63.4504   85.7508   13.6156 C.ar    1  UNL1        0.1690
     19 H          63.6638   81.5447   14.2930 H       1  UNL1        0.1438
     20 H          63.0425   81.0872   12.7723 H       1  UNL1        0.1438
     21 C          64.6442   91.6332   13.4159 C.3     1  UNL1        0.1050
     22 C          67.0188   91.6421   14.4699 C.3     1  UNL1        0.0900
     23 N          66.0136   92.2350   13.5277 N.3     1  UNL1       -0.2656
     24 C          66.3778   93.4299   12.6971 C.3     1  UNL1        0.0987
     25 C          65.7913   93.5975   11.3267 C.2     1  UNL1       -0.0120
     26 C          66.5394   93.1012   10.1249 C.2     1  UNL1       -0.0125
     27 C          67.8739   92.4374   10.2936 C.3     1  UNL1        0.0916
     28 N          69.1175   93.1182    9.8038 N.3     1  UNL1       -0.3175
     29 H          69.0888   93.1877    8.7866 H       1  UNL1        0.1192
     30 H          69.9348   92.5764   10.0846 H       1  UNL1        0.1192
@<TRIPOS>BOND
     1    22    23    1
     2    23    24    1
     3    24    25    1
     4    25    26    2
     5    26    27    1
     6    27    28    1
     7    23    21    1
     8     1    21    1
     9     1     2    1
    10     2     3    1
    11     3     9    1
    12     9    10   ar
    13    10    11   ar
    14    11    12   ar
    15    12    13   ar
    16    13    14    1
    17    13    15   ar
    18    15    16   ar
    19    16    17   ar
    20    17    18   ar
    21     3     4    1
    22     4     5    1
    23     4     6    1
    24     6     7    1
    25     6     1    1
    26    18     9   ar
    27    18    12   ar
    28    28    29    1
    29    28    30    1
    30    14    19    1
    31    14    20    1
    32     7     8    1
@<TRIPOS>MOLECULE
*****
 30 32 0 0 0
SMALL
GASTEIGER

@<TRIPOS>ATOM
      1 C          63.6220   85.0787   14.0331 C.3     1  UNL1        0.1628
      2 O          63.0215   86.1293   13.1468 O.3     1  UNL1       -0.3318
      3 C          62.6979   85.4931   11.8275 C.3     1  UNL1        0.2430
      4 C          63.0986   84.0494   11.8984 C.3     1  UNL1        0.2390
      5 F          62.9535   83.0392   10.7992 F       1  UNL1       -0.2298
      6 C          63.6697   83.7932   13.2616 C.3     1  UNL1        0.1760
      7 O          64.1961   82.4819   13.7648 O.3     1  UNL1       -0.3792
      8 H          64.5068   82.5871   14.6776 H       1  UNL1        0.2106
      9 N          62.0819   86.1801   10.6449 N.ar    1  UNL1       -0.2692
     10 C          61.9926   85.6287    9.2528 C.ar    1  UNL1        0.1816
     11 N          61.3025   86.6470    8.3943 N.ar    1  UNL1       -0.2194
     12 C          60.9654   87.8277    9.2559 C.ar    1  UNL1        0.1481
     13 C          60.2820   89.1283    8.9535 C.ar    1  UNL1        0.1480
     14 N          59.8003   89.4169    7.5626 N.pl3   1  UNL1       -0.3413
     15 N          60.0803   90.1403   10.0421 N.ar    1  UNL1       -0.2078
     16 C          60.5620   89.8518   11.4331 C.ar    1  UNL1        0.2015
     17 N          61.2454   88.5512   11.7354 N.ar    1  UNL1       -0.2048
     18 C          61.4471   87.5392   10.6468 C.ar    1  UNL1        0.1690
     19 H          59.9327   88.7526    6.8481 H       1  UNL1        0.1438
     20 H          59.3518   90.2705    7.3642 H       1  UNL1        0.1438
     21 C          64.0924   85.2786   15.4434 C.3     1  UNL1        0.1050
     22 C          62.7008   86.0161   17.5097 C.3     1  UNL1        0.0900
     23 N          63.4950   86.3661   16.2863 N.3     1  UNL1       -0.2656
     24 C          63.6917   87.8037   15.9057 C.3     1  UNL1        0.0987
     25 C          63.1659   88.8930   16.7927 C.2     1  UNL1       -0.0120
     26 C          63.3563   90.3304   16.4085 C.2     1  UNL1       -0.0125
     27 C          64.0726   90.6784   15.1374 C.3     1  UNL1        0.0916
     28 N          63.3073   91.2348   13.9735 N.3     1  UNL1       -0.3175
     29 H          62.6649   90.5262   13.6190 H       1  UNL1        0.1192
     30 H          63.9583   91.5032   13.2355 H       1  UNL1        0.1192
@<TRIPOS>BOND
     1    22    23    1
     2    23    24    1
     3    24    25    1
     4    25    26    2
     5    26    27    1
     6    27    28    1
     7    23    21    1
     8     1    21    1
     9     1     2    1
    10     2     3    1
    11     3     9    1
    12     9    10   ar
    13    10    11   ar
    14    11    12   ar
    15    12    13   ar
    16    13    14    1
    17    13    15   ar
    18    15    16   ar
    19    16    17   ar
    20    17    18   ar
    21     3     4    1
    22     4     5    1
    23     4     6    1
    24     6     7    1
    25     6     1    1
    26    18     9   ar
    27    18    12   ar
    28    28    29    1
    29    28    30    1
    30    14    19    1
    31    14    20    1
    32     7     8    1
@<TRIPOS>MOLECULE
*****
 30 32 0 0 0
SMALL
GASTEIGER

@<TRIPOS>ATOM
      1 C          63.9941   89.9657   14.2938 C.3     1  UNL1        0.1628
      2 O          64.1629   88.5729   13.7632 O.3     1  UNL1       -0.3318
      3 C          63.8703   87.6134   14.8784 C.3     1  UNL1        0.2430
      4 C          63.5208   88.4132   16.0982 C.3     1  UNL1        0.2390
      5 F          63.1583   87.8569   17.4433 F       1  UNL1       -0.2298
      6 C          63.5973   89.8671   15.7370 C.3     1  UNL1        0.1760
      7 O          63.3248   91.0198   16.6572 O.3     1  UNL1       -0.3792
      8 H          63.4444   91.8533   16.1757 H       1  UNL1        0.2106
      9 N          63.9188   86.1168   14.7894 N.ar    1  UNL1       -0.2692
     10 C          64.4308   85.1867   15.8489 C.ar    1  UNL1        0.1816
     11 N          64.2922   83.7827   15.3395 N.ar    1  UNL1       -0.2194
     12 C          63.6945   83.8451   13.9651 C.ar    1  UNL1        0.1481
     13 C          63.3306   82.7747   12.9794 C.ar    1  UNL1        0.1480
     14 N          63.5614   81.3321   13.3194 N.pl3   1  UNL1       -0.3413
     15 N          62.7359   83.1469   11.6536 N.ar    1  UNL1       -0.2078
     16 C          62.5051   84.5896   11.3136 C.ar    1  UNL1        0.2015
     17 N          62.8690   85.6599   12.2994 N.ar    1  UNL1       -0.2048
     18 C          63.4637   85.2877   13.6251 C.ar    1  UNL1        0.1690
     19 H          63.9517   81.0878   14.1895 H       1  UNL1        0.1438
     20 H          63.3225   80.6296   12.6723 H       1  UNL1        0.1438
     21 C          64.1882   91.2345   13.5174 C.3     1  UNL1        0.1050
     22 C          64.6638   92.0418   11.0942 C.3     1  UNL1        0.0900
     23 N          63.8033   91.2938   12.0689 N.3     1  UNL1       -0.2656
     24 C          62.5579   90.6049   11.5949 C.3     1  UNL1        0.0987
     25 C          62.4434   90.1616   10.1665 C.2     1  UNL1       -0.0120
     26 C          61.2926   89.2997    9.7387 C.2     1  UNL1       -0.0125
     27 C          60.2564   88.8812   10.7393 C.3     1  UNL1        0.0916
     28 N          60.4052   87.5821   11.4742 N.3     1  UNL1       -0.3175
     29 H          60.3283   86.8077   10.8148 H       1  UNL1        0.1192
     30 H          59.6710   87.5036   12.1780 H       1  UNL1        0.1192
@<TRIPOS>BOND
     1    22    23    1
     2    23    24    1
     3    24    25    1
     4    25    26    2
     5    26    27    1
     6    27    28    1
     7    23    21    1
     8     1    21    1
     9     1     2    1
    10     2     3    1
    11     3     9    1
    12     9    10   ar
    13    10    11   ar
    14    11    12   ar
    15    12    13   ar
    16    13    14    1
    17    13    15   ar
    18    15    16   ar
    19    16    17   ar
    20    17    18   ar
    21     3     4    1
    22     4     5    1
    23     4     6    1
    24     6     7    1
    25     6     1    1
    26    18     9   ar
    27    18    12   ar
    28    28    29    1
    29    28    30    1
    30    14    19    1
    31    14    20    1
    32     7     8    1
@<TRIPOS>MOLECULE
*****
 30 32 0 0 0
SMALL
GASTEIGER

@<TRIPOS>ATOM
      1 C          63.6888   89.9317   13.5059 C.3     1  UNL1        0.1628
      2 O          63.8508   88.4913   13.1201 O.3     1  UNL1       -0.3318
      3 C          63.8025   87.6677   14.3728 C.3     1  UNL1        0.2430
      4 C          63.6107   88.5990   15.5328 C.3     1  UNL1        0.2390
      5 F          63.5072   88.2010   16.9753 F       1  UNL1       -0.2298
      6 C          63.5403   89.9984   14.9971 C.3     1  UNL1        0.1760
      7 O          63.3543   91.2453   15.8098 O.3     1  UNL1       -0.3792
      8 H          63.3436   92.0162   15.2212 H       1  UNL1        0.2106
      9 N          63.9247   86.1747   14.4516 N.ar    1  UNL1       -0.2692
     10 C          64.4793   85.3952   15.6070 C.ar    1  UNL1        0.1816
     11 N          64.4110   83.9379   15.2582 N.ar    1  UNL1       -0.2194
     12 C          63.8142   83.8168   13.8874 C.ar    1  UNL1        0.1481
     13 C          63.5056   82.6262   13.0287 C.ar    1  UNL1        0.1480
     14 N          63.8062   81.2438   13.5272 N.pl3   1  UNL1       -0.3413
     15 N          62.8965   82.8181   11.6715 N.ar    1  UNL1       -0.2078
     16 C          62.5959   84.2006   11.1730 C.ar    1  UNL1        0.2015
     17 N          62.9045   85.3911   12.0317 N.ar    1  UNL1       -0.2048
     18 C          63.5136   85.1992   13.3889 C.ar    1  UNL1        0.1690
     19 H          64.2060   81.1178   14.4180 H       1  UNL1        0.1438
     20 H          63.6036   80.4624   12.9636 H       1  UNL1        0.1438
     21 C          63.6772   91.1005   12.5656 C.3     1  UNL1        0.1050
     22 C          65.1476   92.4595   10.9099 C.3     1  UNL1        0.0900
     23 N          64.9528   91.8264   12.2558 N.3     1  UNL1       -0.2656
     24 C          66.0337   91.9192   13.2918 C.3     1  UNL1        0.0987
     25 C          66.7563   93.2158   13.5075 C.2     1  UNL1       -0.0120
     26 C          67.1304   93.6440   14.8956 C.2     1  UNL1       -0.0125
     27 C          66.7818   92.7755   16.0679 C.3     1  UNL1        0.0916
     28 N          65.4336   92.8943   16.7146 N.3     1  UNL1       -0.3175
     29 H          65.3450   93.8124   17.1500 H       1  UNL1        0.1192
     30 H          65.3324   92.1697   17.4253 H       1  UNL1        0.1192
@<TRIPOS>BOND
     1    22    23    1
     2    23    24    1
     3    24    25    1
     4    25    26    2
     5    26    27    1
     6    27    28    1
     7    23    21    1
     8     1    21    1
     9     1     2    1
    10     2     3    1
    11     3     9    1
    12     9    10   ar
    13    10    11   ar
    14    11    12   ar
    15    12    13   ar
    16    13    14    1
    17    13    15   ar
    18    15    16   ar
    19    16    17   ar
    20    17    18   ar
    21     3     4    1
    22     4     5    1
    23     4     6    1
    24     6     7    1
    25     6     1    1
    26    18     9   ar
    27    18    12   ar
    28    28    29    1
    29    28    30    1
    30    14    19    1
    31    14    20    1
    32     7     8    1
