@<TRIPOS>MOLECULE
*****
 32 33 0 0 0
SMALL
GASTEIGER

@<TRIPOS>ATOM
      1 C          64.2922   91.0481   15.3164 C.ar    1  UNL1        0.1762
      2 N          63.5999   91.4787   16.5755 N.ar    1  UNL1       -0.0417
      3 O          64.3977   92.5930   17.1853 O.2     1  UNL1       -0.2408
      4 N          65.5830   92.8512   16.3029 N.ar    1  UNL1       -0.0399
      5 C          65.5178   91.8964   15.1479 C.ar    1  UNL1        0.2348
      6 C          66.5048   91.8057   14.0220 C.2     1  UNL1        0.3935
      7 N          67.9741   91.7369   14.3164 N.2     1  UNL1        0.1538
      8 O          68.9611   91.6463   13.1906 O.2     1  UNL1       -0.3110
      9 H          69.8789   91.6033   13.3745 H       1  UNL1        0.3605
     10 N          66.0226   91.7839   12.6018 N.pl3   1  UNL1       -0.1943
     11 H          65.4447   91.0506   12.2894 H       1  UNL1        0.2987
     12 C          66.4210   92.8792   11.6576 C.ar    1  UNL1        0.1366
     13 C          67.1662   92.5496   10.3982 C.ar    1  UNL1        0.0402
     14 C          67.5646   93.6449    9.4540 C.ar    1  UNL1        0.0044
     15 C          67.2178   95.0698    9.7691 C.ar    1  UNL1        0.0116
     16 C          66.4726   95.3995   11.0285 C.ar    1  UNL1        0.0611
     17 CL         66.1258   96.8244   11.3436 Cl      1  UNL1       -0.0821
     18 C          66.0742   94.3042   11.9728 C.ar    1  UNL1        0.0515
     19 S          63.8384   89.9603   14.3886 S.3     1  UNL1       -0.0881
     20 C          64.4740   88.6033   14.4562 C.3     1  UNL1        0.0850
     21 C          63.8138   87.5037   15.2340 C.3     1  UNL1        0.1015
     22 C          63.7062   85.3636   13.7648 C.2     1  UNL1        0.2483
     23 O          62.8251   86.0804   12.7851 O.2     1  UNL1       -0.2731
     24 N          64.2006   86.0753   14.9892 N.am    1  UNL1       -0.3019
     25 H          64.7789   85.6048   15.6322 H       1  UNL1        0.1495
     26 C          64.0930   83.9352   13.5200 C.3     1  UNL1        0.2527
     27 N          62.4675   81.7150   14.7154 N.3     1  UNL1       -0.2070
     28 S          63.2802   82.8251   14.1176 S.O2    1  UNL1        0.0468
     29 O          62.5131   82.6964   12.8352 O.2     1  UNL1       -0.1572
     30 O          64.0474   82.9538   15.4002 O.2     1  UNL1       -0.1572
     31 H          61.7914   81.3809   14.0286 H       1  UNL1        0.1439
     32 H          61.9738   82.0603   15.5385 H       1  UNL1        0.1439
@<TRIPOS>BOND
     1    27    28    1
     2    28    29    2
     3    28    30    2
     4    28    26    1
     5    26    22    1
     6    22    23    2
     7    22    24   am
     8    24    21    1
     9    21    20    1
    10    20    19    1
    11    19     1    1
    12     1     2   ar
    13     2     3   ar
    14     3     4   ar
    15     4     5   ar
    16     5     6    1
    17     6     7    2
    18     7     8    1
    19     6    10    1
    20    10    12    1
    21    12    13   ar
    22    13    14   ar
    23    14    15   ar
    24    15    16   ar
    25    16    17    1
    26    16    18   ar
    27     5     1   ar
    28    18    12   ar
    29    27    31    1
    30    27    32    1
    31    24    25    1
    32     8     9    1
    33    10    11    1
@<TRIPOS>MOLECULE
*****
 32 33 0 0 0
SMALL
GASTEIGER

@<TRIPOS>ATOM
      1 C          63.4463   90.5805   12.4249 C.ar    1  UNL1        0.1762
      2 N          64.2859   91.6028   11.7177 N.ar    1  UNL1       -0.0417
      3 O          63.7032   91.8169   10.3522 O.2     1  UNL1       -0.2408
      4 N          62.5036   90.9268   10.2154 N.ar    1  UNL1       -0.0399
      5 C          62.3448   90.1627   11.4964 C.ar    1  UNL1        0.2348
      6 C          61.2727   89.1573   11.7962 C.2     1  UNL1        0.3935
      7 N          59.9611   89.6076   12.3682 N.2     1  UNL1        0.1538
      8 O          58.8890   88.6022   12.6680 O.2     1  UNL1       -0.3110
      9 H          58.0697   88.8834   13.0253 H       1  UNL1        0.3605
     10 N          61.5122   87.7018   11.5242 N.pl3   1  UNL1       -0.1943
     11 H          61.8918   87.1257   12.2265 H       1  UNL1        0.2987
     12 C          61.1733   87.1240   10.1821 C.ar    1  UNL1        0.1366
     13 C          59.8423   87.4151    9.5546 C.ar    1  UNL1        0.0402
     14 C          59.5034   86.8373    8.2125 C.ar    1  UNL1        0.0044
     15 C          60.4954   85.9683    7.4979 C.ar    1  UNL1        0.0116
     16 C          61.8265   85.6772    8.1253 C.ar    1  UNL1        0.0611
     17 CL         62.8185   84.8083    7.4107 Cl      1  UNL1       -0.0821
     18 C          62.1654   86.2550    9.4674 C.ar    1  UNL1        0.0515
     19 S          63.6692   90.0663   13.8162 S.3     1  UNL1       -0.0881
     20 C          64.2744   88.7101   14.0267 C.3     1  UNL1        0.0850
     21 C          63.8783   87.8885   15.2175 C.3     1  UNL1        0.1015
     22 C          63.9472   85.4845   14.2347 C.2     1  UNL1        0.2483
     23 O          63.1497   85.9455   13.0509 O.2     1  UNL1       -0.2731
     24 N          64.3115   86.4559   15.3180 N.am    1  UNL1       -0.3019
     25 H          64.8349   86.1533   16.0949 H       1  UNL1        0.1495
     26 C          64.3804   84.0519   14.3351 C.3     1  UNL1        0.2527
     27 N          62.3443   81.8979   14.7987 N.3     1  UNL1       -0.2070
     28 S          63.3624   82.9750   14.5670 S.O2    1  UNL1        0.0468
     29 O          62.7522   83.7890   15.6691 O.2     1  UNL1       -0.1572
     30 O          63.9726   82.1608   13.4648 O.2     1  UNL1       -0.1572
     31 H          61.7223   82.1757   15.5579 H       1  UNL1        0.1439
     32 H          62.8184   81.0299   15.0480 H       1  UNL1        0.1439
@<TRIPOS>BOND
     1    27    28    1
     2    28    29    2
     3    28    30    2
     4    28    26    1
     5    26    22    1
     6    22    23    2
     7    22    24   am
     8    24    21    1
     9    21    20    1
    10    20    19    1
    11    19     1    1
    12     1     2   ar
    13     2     3   ar
    14     3     4   ar
    15     4     5   ar
    16     5     6    1
    17     6     7    2
    18     7     8    1
    19     6    10    1
    20    10    12    1
    21    12    13   ar
    22    13    14   ar
    23    14    15   ar
    24    15    16   ar
    25    16    17    1
    26    16    18   ar
    27     5     1   ar
    28    18    12   ar
    29    27    31    1
    30    27    32    1
    31    24    25    1
    32     8     9    1
    33    10    11    1
@<TRIPOS>MOLECULE
*****
 32 33 0 0 0
SMALL
GASTEIGER

@<TRIPOS>ATOM
      1 C          63.9179   89.3847   13.8020 C.ar    1  UNL1        0.1762
      2 N          64.3331   88.1740   14.5840 N.ar    1  UNL1       -0.0417
      3 O          63.8879   86.9580   13.8269 O.2     1  UNL1       -0.2408
      4 N          63.1974   87.4173   12.5770 N.ar    1  UNL1       -0.0399
      5 C          63.2160   88.9171   12.5616 C.ar    1  UNL1        0.2348
      6 C          62.6347   89.7951   11.4933 C.2     1  UNL1        0.3935
      7 N          63.5211   90.7331   10.7288 N.2     1  UNL1        0.1538
      8 O          62.9398   91.6111    9.6605 O.2     1  UNL1       -0.3110
      9 H          63.4935   92.1971    9.1829 H       1  UNL1        0.3605
     10 N          61.1670   89.7351   11.1895 N.pl3   1  UNL1       -0.1943
     11 H          60.5290   90.2431   11.7411 H       1  UNL1        0.2987
     12 C          60.6714   88.9013   10.0454 C.ar    1  UNL1        0.1366
     13 C          60.6885   87.4048   10.1453 C.ar    1  UNL1        0.0402
     14 C          60.1929   86.5709    9.0012 C.ar    1  UNL1        0.0044
     15 C          59.6801   87.2336    7.7571 C.ar    1  UNL1        0.0116
     16 C          59.6629   88.7302    7.6571 C.ar    1  UNL1        0.0611
     17 CL         59.1501   89.3929    6.4130 Cl      1  UNL1       -0.0821
     18 C          60.1585   89.5641    8.8012 C.ar    1  UNL1        0.0515
     19 S          64.1617   90.8125   14.1919 S.3     1  UNL1       -0.0881
     20 C          65.5381   91.2570   14.5890 C.3     1  UNL1        0.0850
     21 C          66.0953   92.5421   14.0525 C.3     1  UNL1        0.1015
     22 C          66.8311   92.7248   11.5675 C.2     1  UNL1        0.2483
     23 O          68.1447   92.0865   11.9095 O.2     1  UNL1       -0.2731
     24 N          65.8064   92.9526   12.6389 N.am    1  UNL1       -0.3019
     25 H          64.9442   93.3716   12.4145 H       1  UNL1        0.1495
     26 C          66.5422   93.1353   10.1539 C.3     1  UNL1        0.2527
     27 N          67.9006   95.5402    8.9829 N.3     1  UNL1       -0.2070
     28 S          67.2214   94.3378    9.5684 S.O2    1  UNL1        0.0468
     29 O          66.4713   95.2239   10.5181 O.2     1  UNL1       -0.1572
     30 O          67.9716   93.4516    8.6187 O.2     1  UNL1       -0.1572
     31 H          67.5736   96.3809    9.4590 H       1  UNL1        0.1439
     32 H          67.6803   95.6048    7.9890 H       1  UNL1        0.1439
@<TRIPOS>BOND
     1    27    28    1
     2    28    29    2
     3    28    30    2
     4    28    26    1
     5    26    22    1
     6    22    23    2
     7    22    24   am
     8    24    21    1
     9    21    20    1
    10    20    19    1
    11    19     1    1
    12     1     2   ar
    13     2     3   ar
    14     3     4   ar
    15     4     5   ar
    16     5     6    1
    17     6     7    2
    18     7     8    1
    19     6    10    1
    20    10    12    1
    21    12    13   ar
    22    13    14   ar
    23    14    15   ar
    24    15    16   ar
    25    16    17    1
    26    16    18   ar
    27     5     1   ar
    28    18    12   ar
    29    27    31    1
    30    27    32    1
    31    24    25    1
    32     8     9    1
    33    10    11    1
@<TRIPOS>MOLECULE
*****
 32 33 0 0 0
SMALL
GASTEIGER

@<TRIPOS>ATOM
      1 C          61.4523   89.3235   11.0619 C.ar    1  UNL1        0.1762
      2 N          61.0354   89.9571   12.3560 N.ar    1  UNL1       -0.0417
      3 O          59.8016   89.2545   12.8398 O.2     1  UNL1       -0.2408
      4 N          59.4560   88.1866   11.8447 N.ar    1  UNL1       -0.0399
      5 C          60.4762   88.2293   10.7459 C.ar    1  UNL1        0.2348
      6 C          60.5137   87.3347    9.5424 C.2     1  UNL1        0.3935
      7 N          59.2500   87.0330    8.7925 N.2     1  UNL1        0.1538
      8 O          59.2875   86.1385    7.5890 O.2     1  UNL1       -0.3110
      9 H          58.4982   85.9500    7.1206 H       1  UNL1        0.3605
     10 N          61.8147   86.7420    9.0887 N.pl3   1  UNL1       -0.1943
     11 H          62.2648   87.0968    8.2882 H       1  UNL1        0.2987
     12 C          62.4301   85.6086    9.8547 C.ar    1  UNL1        0.1366
     13 C          63.2696   84.5902    9.1420 C.ar    1  UNL1        0.0402
     14 C          63.8850   83.4567    9.9080 C.ar    1  UNL1        0.0044
     15 C          63.6608   83.3417   11.3866 C.ar    1  UNL1        0.0116
     16 C          62.8212   84.3602   12.0994 C.ar    1  UNL1        0.0611
     17 CL         62.5971   84.2452   13.5780 Cl      1  UNL1       -0.0821
     18 C          62.2059   85.4936   11.3334 C.ar    1  UNL1        0.0515
     19 S          62.6373   89.7154   10.2299 S.3     1  UNL1       -0.0881
     20 C          63.0645   91.1516   10.1625 C.3     1  UNL1        0.0850
     21 C          64.0661   91.6830   11.1445 C.3     1  UNL1        0.1015
     22 C          65.1242   91.5458   13.5134 C.2     1  UNL1        0.2483
     23 O          66.3958   92.1359   12.9797 O.2     1  UNL1       -0.2731
     24 N          63.9594   91.3193   12.5959 N.am    1  UNL1       -0.3019
     25 H          63.1249   90.9320   12.9462 H       1  UNL1        0.1495
     26 C          65.0175   91.1821   14.9647 C.3     1  UNL1        0.2527
     27 N          62.6436   89.6369   15.9533 N.3     1  UNL1       -0.2070
     28 S          63.8306   90.4095   15.4590 S.O2    1  UNL1        0.0468
     29 O          63.4294   91.5737   16.3155 O.2     1  UNL1       -0.1572
     30 O          64.2317   89.2452   14.6025 O.2     1  UNL1       -0.1572
     31 H          62.1174   90.2081   16.6144 H       1  UNL1        0.1439
     32 H          62.9611   88.7856   16.4170 H       1  UNL1        0.1439
@<TRIPOS>BOND
     1    27    28    1
     2    28    29    2
     3    28    30    2
     4    28    26    1
     5    26    22    1
     6    22    23    2
     7    22    24   am
     8    24    21    1
     9    21    20    1
    10    20    19    1
    11    19     1    1
    12     1     2   ar
    13     2     3   ar
    14     3     4   ar
    15     4     5   ar
    16     5     6    1
    17     6     7    2
    18     7     8    1
    19     6    10    1
    20    10    12    1
    21    12    13   ar
    22    13    14   ar
    23    14    15   ar
    24    15    16   ar
    25    16    17    1
    26    16    18   ar
    27     5     1   ar
    28    18    12   ar
    29    27    31    1
    30    27    32    1
    31    24    25    1
    32     8     9    1
    33    10    11    1
@<TRIPOS>MOLECULE
*****
 32 33 0 0 0
SMALL
GASTEIGER

@<TRIPOS>ATOM
      1 C          63.9759   89.3934   13.6420 C.ar    1  UNL1        0.1762
      2 N          64.3845   88.2662   14.5433 N.ar    1  UNL1       -0.0417
      3 O          63.8933   86.9857   13.9359 O.2     1  UNL1       -0.2408
      4 N          63.1812   87.3215   12.6592 N.ar    1  UNL1       -0.0399
      5 C          63.2322   88.8096   12.4775 C.ar    1  UNL1        0.2348
      6 C          62.6430   89.5787   11.3324 C.2     1  UNL1        0.3935
      7 N          63.4453   90.6518   10.6579 N.2     1  UNL1        0.1538
      8 O          62.8560   91.4210    9.5128 O.2     1  UNL1       -0.3110
      9 H          63.3572   92.0913    9.0915 H       1  UNL1        0.3605
     10 N          61.2515   89.2749   10.8618 N.pl3   1  UNL1       -0.1943
     11 H          60.4887   89.7842   11.2195 H       1  UNL1        0.2987
     12 C          61.0223   88.1950    9.8463 C.ar    1  UNL1        0.1366
     13 C          59.6928   88.0796    9.1613 C.ar    1  UNL1        0.0402
     14 C          59.4636   86.9998    8.1457 C.ar    1  UNL1        0.0044
     15 C          60.5638   86.0354    7.8151 C.ar    1  UNL1        0.0116
     16 C          61.8933   86.1507    8.5001 C.ar    1  UNL1        0.0611
     17 CL         62.9935   85.1863    8.1695 Cl      1  UNL1       -0.0821
     18 C          62.1226   87.2306    9.5157 C.ar    1  UNL1        0.0515
     19 S          64.2609   90.8490   13.8658 S.3     1  UNL1       -0.0881
     20 C          65.6659   91.3632   13.7588 C.3     1  UNL1        0.0850
     21 C          65.9235   92.8406   13.7275 C.3     1  UNL1        0.1015
     22 C          66.3683   93.6064   11.2850 C.2     1  UNL1        0.2483
     23 O          64.9706   93.2142   10.9075 O.2     1  UNL1       -0.2731
     24 N          66.8448   93.4196   12.6950 N.am    1  UNL1       -0.3019
     25 H          67.7621   93.6770   12.9428 H       1  UNL1        0.1495
     26 C          67.2896   94.1854   10.2525 C.3     1  UNL1        0.2527
     27 N          68.7317   92.3744    8.3444 N.3     1  UNL1       -0.2070
     28 S          68.0106   93.2799    9.2985 S.O2    1  UNL1        0.0468
     29 O          68.3413   92.3517   10.4294 O.2     1  UNL1       -0.1572
     30 O          67.6800   94.2081    8.1675 O.2     1  UNL1       -0.1572
     31 H          69.1071   91.5740    8.8532 H       1  UNL1        0.1439
     32 H          69.4960   92.8853    7.9026 H       1  UNL1        0.1439
@<TRIPOS>BOND
     1    27    28    1
     2    28    29    2
     3    28    30    2
     4    28    26    1
     5    26    22    1
     6    22    23    2
     7    22    24   am
     8    24    21    1
     9    21    20    1
    10    20    19    1
    11    19     1    1
    12     1     2   ar
    13     2     3   ar
    14     3     4   ar
    15     4     5   ar
    16     5     6    1
    17     6     7    2
    18     7     8    1
    19     6    10    1
    20    10    12    1
    21    12    13   ar
    22    13    14   ar
    23    14    15   ar
    24    15    16   ar
    25    16    17    1
    26    16    18   ar
    27     5     1   ar
    28    18    12   ar
    29    27    31    1
    30    27    32    1
    31    24    25    1
    32     8     9    1
    33    10    11    1
@<TRIPOS>MOLECULE
*****
 32 33 0 0 0
SMALL
GASTEIGER

@<TRIPOS>ATOM
      1 C          61.2047   89.2479    9.8882 C.ar    1  UNL1        0.1762
      2 N          60.4201   89.3532    8.6141 N.ar    1  UNL1       -0.0417
      3 O          60.0302   87.9670    8.1941 O.2     1  UNL1       -0.2408
      4 N          60.5737   87.0051    9.2086 N.ar    1  UNL1       -0.0399
      5 C          61.2996   87.7968   10.2557 C.ar    1  UNL1        0.2348
      6 C          61.9978   87.2358   11.4589 C.2     1  UNL1        0.3935
      7 N          63.0476   88.0445   12.1618 N.2     1  UNL1        0.1538
      8 O          63.7458   87.4835   13.3651 O.2     1  UNL1       -0.3110
      9 H          64.4016   87.9887   13.8041 H       1  UNL1        0.3605
     10 N          61.6464   85.8661   11.9593 N.pl3   1  UNL1       -0.1943
     11 H          60.8478   85.7369   12.5204 H       1  UNL1        0.2987
     12 C          62.5115   84.6932   11.6047 C.ar    1  UNL1        0.1366
     13 C          63.1002   84.5840   10.2294 C.ar    1  UNL1        0.0402
     14 C          63.9654   83.4111    9.8748 C.ar    1  UNL1        0.0044
     15 C          64.2418   82.3473   10.8955 C.ar    1  UNL1        0.0116
     16 C          63.6531   82.4564   12.2708 C.ar    1  UNL1        0.0611
     17 CL         63.9296   81.3926   13.2915 Cl      1  UNL1       -0.0821
     18 C          62.7880   83.6293   12.6255 C.ar    1  UNL1        0.0515
     19 S          61.7913   90.3930   10.6595 S.3     1  UNL1       -0.0881
     20 C          62.9123   91.1974   10.0713 C.3     1  UNL1        0.0850
     21 C          64.0542   91.6385   10.9381 C.3     1  UNL1        0.1015
     22 C          65.0399   91.7738   13.3381 C.2     1  UNL1        0.2483
     23 O          65.6750   93.0908   13.0030 O.2     1  UNL1       -0.2731
     24 N          64.2295   91.0477   12.3057 N.am    1  UNL1       -0.3019
     25 H          63.8127   90.1834   12.5256 H       1  UNL1        0.1495
     26 C          65.2152   91.1830   14.7057 C.3     1  UNL1        0.2527
     27 N          64.6035   92.8269   17.1396 N.3     1  UNL1       -0.2070
     28 S          64.9094   92.0050   15.9226 S.O2    1  UNL1        0.0468
     29 O          66.3400   92.4519   15.9803 O.2     1  UNL1       -0.1572
     30 O          63.4787   91.5581   15.8649 O.2     1  UNL1       -0.1572
     31 H          65.4514   93.2998   17.4524 H       1  UNL1        0.1439
     32 H          64.2593   92.2190   17.8827 H       1  UNL1        0.1439
@<TRIPOS>BOND
     1    27    28    1
     2    28    29    2
     3    28    30    2
     4    28    26    1
     5    26    22    1
     6    22    23    2
     7    22    24   am
     8    24    21    1
     9    21    20    1
    10    20    19    1
    11    19     1    1
    12     1     2   ar
    13     2     3   ar
    14     3     4   ar
    15     4     5   ar
    16     5     6    1
    17     6     7    2
    18     7     8    1
    19     6    10    1
    20    10    12    1
    21    12    13   ar
    22    13    14   ar
    23    14    15   ar
    24    15    16   ar
    25    16    17    1
    26    16    18   ar
    27     5     1   ar
    28    18    12   ar
    29    27    31    1
    30    27    32    1
    31    24    25    1
    32     8     9    1
    33    10    11    1
@<TRIPOS>MOLECULE
*****
 32 33 0 0 0
SMALL
GASTEIGER

@<TRIPOS>ATOM
      1 C          63.8405   89.2185   13.5660 C.ar    1  UNL1        0.1762
      2 N          62.9325   88.7404   12.4718 N.ar    1  UNL1       -0.0417
      3 O          62.7901   89.8483   11.4706 O.2     1  UNL1       -0.2408
      4 N          63.6100   91.0109   11.9460 N.ar    1  UNL1       -0.0399
      5 C          64.2592   90.6217   13.2410 C.ar    1  UNL1        0.2348
      6 C          65.1675   91.4843   14.0661 C.2     1  UNL1        0.3935
      7 N          64.6955   92.0260   15.3829 N.2     1  UNL1        0.1538
      8 O          65.6039   92.8886   16.2080 O.2     1  UNL1       -0.3110
      9 H          65.3091   93.2269   17.0305 H       1  UNL1        0.3605
     10 N          66.5479   91.8051   13.5745 N.pl3   1  UNL1       -0.1943
     11 H          67.3345   91.4969   14.0800 H       1  UNL1        0.2987
     12 C          66.7298   92.5956   12.3128 C.ar    1  UNL1        0.1366
     13 C          66.0755   93.9375   12.1675 C.ar    1  UNL1        0.0402
     14 C          66.2574   94.7279   10.9057 C.ar    1  UNL1        0.0044
     15 C          67.0937   94.1765    9.7892 C.ar    1  UNL1        0.0116
     16 C          67.7481   92.8346    9.9345 C.ar    1  UNL1        0.0611
     17 CL         68.5843   92.2831    8.8180 Cl      1  UNL1       -0.0821
     18 C          67.5661   92.0441   11.1963 C.ar    1  UNL1        0.0515
     19 S          64.2567   88.4314   14.7731 S.3     1  UNL1       -0.0881
     20 C          64.5632   86.9687   14.6458 C.3     1  UNL1        0.0850
     21 C          63.8881   85.9794   15.5489 C.3     1  UNL1        0.1015
     22 C          63.1442   83.5400   15.0530 C.2     1  UNL1        0.2483
     23 O          64.4082   83.0276   15.6772 O.2     1  UNL1       -0.2731
     24 N          62.8841   85.0159   14.9889 N.am    1  UNL1       -0.3019
     25 H          62.0545   85.3522   14.5792 H       1  UNL1        0.1495
     26 C          62.1402   82.5765   14.4929 C.3     1  UNL1        0.2527
     27 N          62.8472   80.8849   12.1183 N.3     1  UNL1       -0.2070
     28 S          62.4937   81.7307   13.3056 S.O2    1  UNL1        0.0468
     29 O          62.4638   82.9479   12.4296 O.2     1  UNL1       -0.1572
     30 O          62.5236   80.5135   14.1816 O.2     1  UNL1       -0.1572
     31 H          62.9081   81.4735   11.2875 H       1  UNL1        0.1439
     32 H          62.1276   80.1752   11.9801 H       1  UNL1        0.1439
@<TRIPOS>BOND
     1    27    28    1
     2    28    29    2
     3    28    30    2
     4    28    26    1
     5    26    22    1
     6    22    23    2
     7    22    24   am
     8    24    21    1
     9    21    20    1
    10    20    19    1
    11    19     1    1
    12     1     2   ar
    13     2     3   ar
    14     3     4   ar
    15     4     5   ar
    16     5     6    1
    17     6     7    2
    18     7     8    1
    19     6    10    1
    20    10    12    1
    21    12    13   ar
    22    13    14   ar
    23    14    15   ar
    24    15    16   ar
    25    16    17    1
    26    16    18   ar
    27     5     1   ar
    28    18    12   ar
    29    27    31    1
    30    27    32    1
    31    24    25    1
    32     8     9    1
    33    10    11    1
@<TRIPOS>MOLECULE
*****
 32 33 0 0 0
SMALL
GASTEIGER

@<TRIPOS>ATOM
      1 C          63.5506   88.9603   14.5898 C.ar    1  UNL1        0.1762
      2 N          63.0262   89.8842   15.6487 N.ar    1  UNL1       -0.0417
      3 O          62.8811   89.0990   16.9185 O.2     1  UNL1       -0.2408
      4 N          63.3159   87.6898   16.6443 N.ar    1  UNL1       -0.0399
      5 C          63.7297   87.6041   15.2051 C.ar    1  UNL1        0.2348
      6 C          64.2339   86.3775   14.5042 C.2     1  UNL1        0.3935
      7 N          65.4788   85.6952   14.9889 N.2     1  UNL1        0.1538
      8 O          65.9831   84.4686   14.2880 O.2     1  UNL1       -0.3110
      9 H          66.7607   84.0424   14.5907 H       1  UNL1        0.3605
     10 N          63.4934   85.8332   13.3188 N.pl3   1  UNL1       -0.1943
     11 H          63.2669   86.4253   12.5656 H       1  UNL1        0.2987
     12 C          63.0980   84.3868   13.2809 C.ar    1  UNL1        0.1366
     13 C          62.4769   83.7472   14.4871 C.ar    1  UNL1        0.0402
     14 C          62.0815   82.3007   14.4492 C.ar    1  UNL1        0.0044
     15 C          62.3072   81.4939   13.2051 C.ar    1  UNL1        0.0116
     16 C          62.9283   82.1335   11.9987 C.ar    1  UNL1        0.0611
     17 CL         63.1539   81.3266   10.7545 Cl      1  UNL1       -0.0821
     18 C          63.3237   83.5799   12.0366 C.ar    1  UNL1        0.0515
     19 S          63.8444   89.3281   13.1655 S.3     1  UNL1       -0.0881
     20 C          62.8815   90.1846   12.3981 C.3     1  UNL1        0.0850
     21 C          61.5991   89.5982   11.8868 C.3     1  UNL1        0.1015
     22 C          61.2831   87.5360   10.3385 C.2     1  UNL1        0.2483
     23 O          61.0804   86.6636   11.5417 O.2     1  UNL1       -0.2731
     24 N          61.5424   89.0033   10.5110 N.am    1  UNL1       -0.3019
     25 H          61.6754   89.5759    9.7212 H       1  UNL1        0.1495
     26 C          61.2264   86.9411    8.9627 C.3     1  UNL1        0.2527
     27 N          58.5820   86.5781    7.5930 N.3     1  UNL1       -0.2070
     28 S          59.9042   86.7596    8.2779 S.O2    1  UNL1        0.0468
     29 O          59.3468   87.9209    9.0463 O.2     1  UNL1       -0.1572
     30 O          60.4616   85.5983    7.5093 O.2     1  UNL1       -0.1572
     31 H          57.9249   87.2815    7.9305 H       1  UNL1        0.1439
     32 H          58.2183   85.6473    7.7972 H       1  UNL1        0.1439
@<TRIPOS>BOND
     1    27    28    1
     2    28    29    2
     3    28    30    2
     4    28    26    1
     5    26    22    1
     6    22    23    2
     7    22    24   am
     8    24    21    1
     9    21    20    1
    10    20    19    1
    11    19     1    1
    12     1     2   ar
    13     2     3   ar
    14     3     4   ar
    15     4     5   ar
    16     5     6    1
    17     6     7    2
    18     7     8    1
    19     6    10    1
    20    10    12    1
    21    12    13   ar
    22    13    14   ar
    23    14    15   ar
    24    15    16   ar
    25    16    17    1
    26    16    18   ar
    27     5     1   ar
    28    18    12   ar
    29    27    31    1
    30    27    32    1
    31    24    25    1
    32     8     9    1
    33    10    11    1
@<TRIPOS>MOLECULE
*****
 32 33 0 0 0
SMALL
GASTEIGER

@<TRIPOS>ATOM
      1 C          63.8017   84.2107   15.0437 C.ar    1  UNL1        0.1762
      2 N          63.9692   82.7600   15.3867 N.ar    1  UNL1       -0.0417
      3 O          63.4327   81.9488   14.2447 O.2     1  UNL1       -0.2408
      4 N          62.9337   82.8981   13.1960 N.ar    1  UNL1       -0.0399
      5 C          63.1618   84.2960   13.6898 C.ar    1  UNL1        0.2348
      6 C          62.8114   85.5577   12.9581 C.2     1  UNL1        0.3935
      7 N          63.6731   86.7762   13.1091 N.2     1  UNL1        0.1538
      8 O          63.3227   88.0379   12.3774 O.2     1  UNL1       -0.3110
      9 H          63.8610   88.7991   12.4717 H       1  UNL1        0.3605
     10 N          61.5993   85.6010   12.0755 N.pl3   1  UNL1       -0.1943
     11 H          60.7008   85.6474   12.4752 H       1  UNL1        0.2987
     12 C          61.7562   85.5735   10.5840 C.ar    1  UNL1        0.1366
     13 C          62.9613   84.9263    9.9685 C.ar    1  UNL1        0.0402
     14 C          63.1182   84.8988    8.4769 C.ar    1  UNL1        0.0044
     15 C          62.0701   85.5185    7.6010 C.ar    1  UNL1        0.0116
     16 C          60.8649   86.1657    8.2165 C.ar    1  UNL1        0.0611
     17 CL         59.8168   86.7853    7.3406 Cl      1  UNL1       -0.0821
     18 C          60.7080   86.1932    9.7080 C.ar    1  UNL1        0.0515
     19 S          64.2037   85.3721   15.9037 S.3     1  UNL1       -0.0881
     20 C          63.1780   86.0742   16.7431 C.3     1  UNL1        0.0850
     21 C          63.1232   87.5731   16.7628 C.3     1  UNL1        0.1015
     22 C          63.7237   89.8583   15.6825 C.2     1  UNL1        0.2483
     23 O          63.1693   90.5704   16.8807 O.2     1  UNL1       -0.2731
     24 N          63.7007   88.3597   15.6236 N.am    1  UNL1       -0.3019
     25 H          64.0645   87.8923   14.8372 H       1  UNL1        0.1495
     26 C          64.3011   90.6450   14.5433 C.3     1  UNL1        0.2527
     27 N          62.7140   91.0244   12.0259 N.3     1  UNL1       -0.2070
     28 S          63.5076   90.8347   13.2846 S.O2    1  UNL1        0.0468
     29 O          64.6478   91.5998   12.6811 O.2     1  UNL1       -0.1572
     30 O          62.3673   90.0695   13.8881 O.2     1  UNL1       -0.1572
     31 H          63.2651   91.5579   11.3536 H       1  UNL1        0.1439
     32 H          61.8545   91.5306   12.2389 H       1  UNL1        0.1439
@<TRIPOS>BOND
     1    27    28    1
     2    28    29    2
     3    28    30    2
     4    28    26    1
     5    26    22    1
     6    22    23    2
     7    22    24   am
     8    24    21    1
     9    21    20    1
    10    20    19    1
    11    19     1    1
    12     1     2   ar
    13     2     3   ar
    14     3     4   ar
    15     4     5   ar
    16     5     6    1
    17     6     7    2
    18     7     8    1
    19     6    10    1
    20    10    12    1
    21    12    13   ar
    22    13    14   ar
    23    14    15   ar
    24    15    16   ar
    25    16    17    1
    26    16    18   ar
    27     5     1   ar
    28    18    12   ar
    29    27    31    1
    30    27    32    1
    31    24    25    1
    32     8     9    1
    33    10    11    1
