@<TRIPOS>MOLECULE
*****
 24 26 0 0 0
SMALL
GASTEIGER

@<TRIPOS>ATOM
      1 N          63.9876   89.3405   13.7065 N.ar    1  UNL1       -0.2281
      2 N          63.9933   87.8702   14.0032 N.ar    1  UNL1       -0.1635
      3 C          63.2910   87.1678   12.8793 C.ar    1  UNL1        0.1219
      4 C          62.8512   88.2040   11.8878 C.ar    1  UNL1        0.0425
      5 C          62.1144   88.0982   10.5856 C.ar    1  UNL1        0.0744
      6 C          61.8081   89.3353    9.7946 C.ar    1  UNL1        0.0040
      7 C          62.2386   90.6782   10.3059 C.ar    1  UNL1        0.0015
      8 C          62.9755   90.7839   11.6081 C.ar    1  UNL1        0.0192
      9 C          63.2818   89.5468   12.3991 C.ar    1  UNL1        0.0843
     10 C          66.5611   91.9993   15.1411 C.ar    1  UNL1        0.0224
     11 C          65.7745   92.5664   16.2854 C.ar    1  UNL1        0.0969
     12 N          64.3922   92.0582   16.5701 N.ar    1  UNL1       -0.2410
     13 C          63.7966   90.9829   15.7104 C.ar    1  UNL1        0.1179
     14 C          64.5832   90.4158   14.5661 C.ar    1  UNL1        0.1017
     15 C          65.9655   90.9240   14.2814 C.ar    1  UNL1        0.0202
     16 C          67.9748   93.1749   16.1992 C.3     1  UNL1        0.0339
     17 C          67.9434   92.5075   14.8563 C.3     1  UNL1        0.1086
     18 C          67.9120   91.8400   13.5133 C.3     1  UNL1        0.0339
     19 O          69.3256   93.0156   14.5715 O.3     1  UNL1       -0.3826
     20 H          69.6427   93.5320   15.3288 H       1  UNL1        0.2107
     21 C          61.6838   86.7554   10.0744 C.3     1  UNL1        0.4187
     22 F          61.2533   85.4125    9.5631 F       1  UNL1       -0.1659
     23 F          60.6654   86.6641   11.1718 F       1  UNL1       -0.1659
     24 F          62.7022   86.8466    8.9769 F       1  UNL1       -0.1659
@<TRIPOS>BOND
     1    16    17    1
     2    17    18    1
     3    17    19    1
     4    17    10    1
     5    10    11   ar
     6    11    12   ar
     7    12    13   ar
     8    13    14   ar
     9    14     1    1
    10     1     2   ar
    11     2     3   ar
    12     3     4   ar
    13     4     5   ar
    14     5    21    1
    15    21    22    1
    16    21    23    1
    17    21    24    1
    18     5     6   ar
    19     6     7   ar
    20     7     8   ar
    21     8     9   ar
    22    14    15   ar
    23    15    10   ar
    24     9     1   ar
    25     9     4   ar
    26    19    20    1
@<TRIPOS>MOLECULE
*****
 24 26 0 0 0
SMALL
GASTEIGER

@<TRIPOS>ATOM
      1 N          63.0851   90.0566   12.4819 N.ar    1  UNL1       -0.2281
      2 N          63.2288   89.3909   13.8184 N.ar    1  UNL1       -0.1635
      3 C          64.3791   90.0338   14.5350 C.ar    1  UNL1        0.1219
      4 C          64.9463   91.0967   13.6415 C.ar    1  UNL1        0.0425
      5 C          66.0877   92.0536   13.8194 C.ar    1  UNL1        0.0744
      6 C          66.4293   93.0245   12.7283 C.ar    1  UNL1        0.0040
      7 C          65.6296   93.0387   11.4594 C.ar    1  UNL1        0.0015
      8 C          64.4882   92.0818   11.2815 C.ar    1  UNL1        0.0192
      9 C          64.1466   91.1109   12.3726 C.ar    1  UNL1        0.0843
     10 C          61.1452   88.1206    9.6115 C.ar    1  UNL1        0.0224
     11 C          60.0096   89.0651    9.3500 C.ar    1  UNL1        0.0969
     12 N          59.8992   90.3400   10.1325 N.ar    1  UNL1       -0.2410
     13 C          60.9244   90.6705   11.1764 C.ar    1  UNL1        0.1179
     14 C          62.0599   89.7261   11.4379 C.ar    1  UNL1        0.1017
     15 C          62.1704   88.4511   10.6555 C.ar    1  UNL1        0.0202
     16 C          62.4466   86.4457    9.6488 C.3     1  UNL1        0.0339
     17 C          61.2557   86.8456    8.8291 C.3     1  UNL1        0.1086
     18 C          60.0647   87.2455    8.0094 C.3     1  UNL1        0.0339
     19 O          61.3661   85.5706    8.0467 O.3     1  UNL1       -0.3826
     20 H          62.1160   85.0520    8.3778 H       1  UNL1        0.2107
     21 C          66.8874   92.0394   15.0883 C.3     1  UNL1        0.4187
     22 F          67.6871   92.0253   16.3573 F       1  UNL1       -0.1659
     23 F          67.9980   91.3215   14.3804 F       1  UNL1       -0.1659
     24 F          65.7768   92.7574   15.7963 F       1  UNL1       -0.1659
@<TRIPOS>BOND
     1    16    17    1
     2    17    18    1
     3    17    19    1
     4    17    10    1
     5    10    11   ar
     6    11    12   ar
     7    12    13   ar
     8    13    14   ar
     9    14     1    1
    10     1     2   ar
    11     2     3   ar
    12     3     4   ar
    13     4     5   ar
    14     5    21    1
    15    21    22    1
    16    21    23    1
    17    21    24    1
    18     5     6   ar
    19     6     7   ar
    20     7     8   ar
    21     8     9   ar
    22    14    15   ar
    23    15    10   ar
    24     9     1   ar
    25     9     4   ar
    26    19    20    1
@<TRIPOS>MOLECULE
*****
 24 26 0 0 0
SMALL
GASTEIGER

@<TRIPOS>ATOM
      1 N          63.4266   89.9092   12.4970 N.ar    1  UNL1       -0.2281
      2 N          62.9076   90.5832   11.2616 N.ar    1  UNL1       -0.1635
      3 C          62.3701   89.5232   10.3464 C.ar    1  UNL1        0.1219
      4 C          62.5569   88.1942   11.0162 C.ar    1  UNL1        0.0425
      5 C          62.2168   86.7976   10.5875 C.ar    1  UNL1        0.0744
      6 C          62.5296   85.6395   11.4880 C.ar    1  UNL1        0.0040
      7 C          63.1825   85.8780   12.8172 C.ar    1  UNL1        0.0015
      8 C          63.5226   87.2746   13.2459 C.ar    1  UNL1        0.0192
      9 C          63.2098   88.4327   12.3454 C.ar    1  UNL1        0.0843
     10 C          66.0617   91.8439   14.7472 C.ar    1  UNL1        0.0224
     11 C          65.3042   91.9571   16.0369 C.ar    1  UNL1        0.0969
     12 N          63.9208   91.3877   16.1466 N.ar    1  UNL1       -0.2410
     13 C          63.2950   90.7051   14.9667 C.ar    1  UNL1        0.1179
     14 C          64.0524   90.5918   13.6770 C.ar    1  UNL1        0.1017
     15 C          65.4359   91.1612   13.5673 C.ar    1  UNL1        0.0202
     16 C          67.3914   92.8221   16.0796 C.3     1  UNL1        0.0339
     17 C          67.4451   92.4132   14.6374 C.3     1  UNL1        0.1086
     18 C          67.4988   92.0043   13.1951 C.3     1  UNL1        0.0339
     19 O          68.8284   92.9826   14.5275 O.3     1  UNL1       -0.3826
     20 H          69.0939   93.3546   15.3831 H       1  UNL1        0.2107
     21 C          61.5638   86.5590    9.2583 C.3     1  UNL1        0.4187
     22 F          60.9109   86.3205    7.9291 F       1  UNL1       -0.1659
     23 F          62.9047   86.2687    8.6517 F       1  UNL1       -0.1659
     24 F          60.2230   86.8494    9.8648 F       1  UNL1       -0.1659
@<TRIPOS>BOND
     1    16    17    1
     2    17    18    1
     3    17    19    1
     4    17    10    1
     5    10    11   ar
     6    11    12   ar
     7    12    13   ar
     8    13    14   ar
     9    14     1    1
    10     1     2   ar
    11     2     3   ar
    12     3     4   ar
    13     4     5   ar
    14     5    21    1
    15    21    22    1
    16    21    23    1
    17    21    24    1
    18     5     6   ar
    19     6     7   ar
    20     7     8   ar
    21     8     9   ar
    22    14    15   ar
    23    15    10   ar
    24     9     1   ar
    25     9     4   ar
    26    19    20    1
@<TRIPOS>MOLECULE
*****
 24 26 0 0 0
SMALL
GASTEIGER

@<TRIPOS>ATOM
      1 N          63.8858   86.5836   14.8095 N.ar    1  UNL1       -0.2281
      2 N          64.3206   85.4759   15.7227 N.ar    1  UNL1       -0.1635
      3 C          64.1323   84.1765   14.9974 C.ar    1  UNL1        0.1219
      4 C          63.5810   84.4811   13.6360 C.ar    1  UNL1        0.0425
      5 C          63.1981   83.5961   12.4871 C.ar    1  UNL1        0.0744
      6 C          62.6629   84.1987   11.2221 C.ar    1  UNL1        0.0040
      7 C          62.5106   85.6865   11.1060 C.ar    1  UNL1        0.0015
      8 C          62.8935   86.5715   12.2549 C.ar    1  UNL1        0.0192
      9 C          63.4287   85.9689   13.5199 C.ar    1  UNL1        0.0843
     10 C          64.6075   90.4757   14.5236 C.ar    1  UNL1        0.0224
     11 C          63.9426   90.9796   15.7701 C.ar    1  UNL1        0.0969
     12 N          63.2588   90.0182   16.6965 N.ar    1  UNL1       -0.2410
     13 C          63.2399   88.5529   16.3762 C.ar    1  UNL1        0.1179
     14 C          63.9047   88.0490   15.1297 C.ar    1  UNL1        0.1017
     15 C          64.5886   89.0104   14.2033 C.ar    1  UNL1        0.0202
     16 C          64.1434   91.3292   12.6377 C.3     1  UNL1        0.0339
     17 C          65.2914   91.4370   13.5972 C.3     1  UNL1        0.1086
     18 C          66.4394   91.5448   14.5566 C.3     1  UNL1        0.0339
     19 O          65.9753   92.3983   12.6708 O.3     1  UNL1       -0.3826
     20 H          65.4228   92.5397   11.8862 H       1  UNL1        0.2107
     21 C          63.3505   82.1084   12.6032 C.3     1  UNL1        0.4187
     22 F          63.5028   80.6206   12.7193 F       1  UNL1       -0.1659
     23 F          61.8937   81.9854   12.9391 F       1  UNL1       -0.1659
     24 F          64.8072   82.2313   12.2674 F       1  UNL1       -0.1659
@<TRIPOS>BOND
     1    16    17    1
     2    17    18    1
     3    17    19    1
     4    17    10    1
     5    10    11   ar
     6    11    12   ar
     7    12    13   ar
     8    13    14   ar
     9    14     1    1
    10     1     2   ar
    11     2     3   ar
    12     3     4   ar
    13     4     5   ar
    14     5    21    1
    15    21    22    1
    16    21    23    1
    17    21    24    1
    18     5     6   ar
    19     6     7   ar
    20     7     8   ar
    21     8     9   ar
    22    14    15   ar
    23    15    10   ar
    24     9     1   ar
    25     9     4   ar
    26    19    20    1
@<TRIPOS>MOLECULE
*****
 24 26 0 0 0
SMALL
GASTEIGER

@<TRIPOS>ATOM
      1 N          63.9605   87.9063   14.3351 N.ar    1  UNL1       -0.2281
      2 N          64.3721   86.6054   14.9583 N.ar    1  UNL1       -0.1635
      3 C          64.0136   85.5021   14.0075 C.ar    1  UNL1        0.1219
      4 C          63.3804   86.1210   12.7967 C.ar    1  UNL1        0.0425
      5 C          62.8296   85.5235   11.5359 C.ar    1  UNL1        0.0744
      6 C          62.2459   86.4119   10.4776 C.ar    1  UNL1        0.0040
      7 C          62.2131   87.8978   10.6801 C.ar    1  UNL1        0.0015
      8 C          62.7640   88.4953   11.9408 C.ar    1  UNL1        0.0192
      9 C          63.3476   87.6069   12.9991 C.ar    1  UNL1        0.0843
     10 C          65.3329   91.5706   14.9978 C.ar    1  UNL1        0.0224
     11 C          64.4741   91.9902   16.1539 C.ar    1  UNL1        0.0969
     12 N          63.4442   91.0485   16.7036 N.ar    1  UNL1       -0.2410
     13 C          63.2730   89.6872   16.0973 C.ar    1  UNL1        0.1179
     14 C          64.1317   89.2676   14.9414 C.ar    1  UNL1        0.1017
     15 C          65.1617   90.2093   14.3916 C.ar    1  UNL1        0.0202
     16 C          66.8921   92.7421   15.8326 C.3     1  UNL1        0.0339
     17 C          66.3629   92.5123   14.4480 C.3     1  UNL1        0.1086
     18 C          65.8337   92.2825   13.0633 C.3     1  UNL1        0.0339
     19 O          67.3929   93.4539   13.8981 O.3     1  UNL1       -0.3826
     20 H          67.9376   93.7970   14.6238 H       1  UNL1        0.2107
     21 C          62.8624   84.0376   11.3335 C.3     1  UNL1        0.4187
     22 F          62.8952   82.5516   11.1310 F       1  UNL1       -0.1659
     23 F          62.0961   83.8469   12.6088 F       1  UNL1       -0.1659
     24 F          63.6287   84.2283   10.0581 F       1  UNL1       -0.1659
@<TRIPOS>BOND
     1    16    17    1
     2    17    18    1
     3    17    19    1
     4    17    10    1
     5    10    11   ar
     6    11    12   ar
     7    12    13   ar
     8    13    14   ar
     9    14     1    1
    10     1     2   ar
    11     2     3   ar
    12     3     4   ar
    13     4     5   ar
    14     5    21    1
    15    21    22    1
    16    21    23    1
    17    21    24    1
    18     5     6   ar
    19     6     7   ar
    20     7     8   ar
    21     8     9   ar
    22    14    15   ar
    23    15    10   ar
    24     9     1   ar
    25     9     4   ar
    26    19    20    1
@<TRIPOS>MOLECULE
*****
 24 26 0 0 0
SMALL
GASTEIGER

@<TRIPOS>ATOM
      1 N          62.7503   86.3896   11.8090 N.ar    1  UNL1       -0.2281
      2 N          62.1794   85.3610   10.8783 N.ar    1  UNL1       -0.1635
      3 C          62.3861   84.0104   11.4971 C.ar    1  UNL1        0.1219
      4 C          63.0847   84.2042   12.8103 C.ar    1  UNL1        0.0425
      5 C          63.5450   83.2316   13.8554 C.ar    1  UNL1        0.0744
      6 C          64.2303   83.7296   15.0933 C.ar    1  UNL1        0.0040
      7 C          64.4554   85.2000   15.2860 C.ar    1  UNL1        0.0015
      8 C          63.9951   86.1725   14.2409 C.ar    1  UNL1        0.0192
      9 C          63.3098   85.6746   13.0030 C.ar    1  UNL1        0.0843
     10 C          63.4647   90.2574   12.3379 C.ar    1  UNL1        0.0224
     11 C          62.7794   90.8391   11.1370 C.ar    1  UNL1        0.0969
     12 N          62.0844   89.9376   10.1602 N.ar    1  UNL1       -0.2410
     13 C          62.0747   88.4544   10.3842 C.ar    1  UNL1        0.1179
     14 C          62.7600   87.8727   11.5850 C.ar    1  UNL1        0.1017
     15 C          63.4550   88.7743   12.5619 C.ar    1  UNL1        0.0202
     16 C          63.5788   90.3734   14.4530 C.3     1  UNL1        0.0339
     17 C          64.1597   91.1588   13.3147 C.3     1  UNL1        0.1086
     18 C          64.7407   91.9444   12.1765 C.3     1  UNL1        0.0339
     19 O          64.8548   92.0603   14.2916 O.3     1  UNL1       -0.3826
     20 H          64.6505   91.7758   15.1961 H       1  UNL1        0.2107
     21 C          63.3199   81.7612   13.6627 C.3     1  UNL1        0.4187
     22 F          63.0948   80.2908   13.4700 F       1  UNL1       -0.1659
     23 F          62.1049   81.8323   14.5394 F       1  UNL1       -0.1659
     24 F          64.5349   81.6901   12.7859 F       1  UNL1       -0.1659
@<TRIPOS>BOND
     1    16    17    1
     2    17    18    1
     3    17    19    1
     4    17    10    1
     5    10    11   ar
     6    11    12   ar
     7    12    13   ar
     8    13    14   ar
     9    14     1    1
    10     1     2   ar
    11     2     3   ar
    12     3     4   ar
    13     4     5   ar
    14     5    21    1
    15    21    22    1
    16    21    23    1
    17    21    24    1
    18     5     6   ar
    19     6     7   ar
    20     7     8   ar
    21     8     9   ar
    22    14    15   ar
    23    15    10   ar
    24     9     1   ar
    25     9     4   ar
    26    19    20    1
@<TRIPOS>MOLECULE
*****
 24 26 0 0 0
SMALL
GASTEIGER

@<TRIPOS>ATOM
      1 N          63.0927   86.0630   12.7651 N.ar    1  UNL1       -0.2281
      2 N          63.7382   87.2428   13.4294 N.ar    1  UNL1       -0.1635
      3 C          63.4262   88.4622   12.6136 C.ar    1  UNL1        0.1219
      4 C          62.5878   88.0360   11.4450 C.ar    1  UNL1        0.0425
      5 C          61.9855   88.8066   10.3077 C.ar    1  UNL1        0.0744
      6 C          61.1771   88.0944    9.2642 C.ar    1  UNL1        0.0040
      7 C          60.9710   86.6116    9.3578 C.ar    1  UNL1        0.0015
      8 C          61.5733   85.8410   10.4950 C.ar    1  UNL1        0.0192
      9 C          62.3818   86.5532   11.5386 C.ar    1  UNL1        0.0843
     10 C          63.0918   82.0944   12.7380 C.ar    1  UNL1        0.0224
     11 C          63.2598   81.8009   14.1994 C.ar    1  UNL1        0.0969
     12 N          63.3721   82.9281   15.1827 N.ar    1  UNL1       -0.2410
     13 C          63.3164   84.3488   14.7045 C.ar    1  UNL1        0.1179
     14 C          63.1484   84.6423   13.2432 C.ar    1  UNL1        0.1017
     15 C          63.0361   83.5151   12.2599 C.ar    1  UNL1        0.0202
     16 C          63.5035   81.8611   10.6702 C.3     1  UNL1        0.0339
     17 C          62.9794   80.9673   11.7548 C.3     1  UNL1        0.1086
     18 C          62.4553   80.0734   12.8394 C.3     1  UNL1        0.0339
     19 O          62.8670   79.8401   10.7715 O.3     1  UNL1       -0.3826
     20 H          63.1624   80.1421    9.8983 H       1  UNL1        0.2107
     21 C          62.1916   90.2894   10.2141 C.3     1  UNL1        0.4187
     22 F          62.3977   91.7723   10.1204 F       1  UNL1       -0.1659
     23 F          63.6497   90.0694    9.9392 F       1  UNL1       -0.1659
     24 F          60.7335   90.5094   10.4890 F       1  UNL1       -0.1659
@<TRIPOS>BOND
     1    16    17    1
     2    17    18    1
     3    17    19    1
     4    17    10    1
     5    10    11   ar
     6    11    12   ar
     7    12    13   ar
     8    13    14   ar
     9    14     1    1
    10     1     2   ar
    11     2     3   ar
    12     3     4   ar
    13     4     5   ar
    14     5    21    1
    15    21    22    1
    16    21    23    1
    17    21    24    1
    18     5     6   ar
    19     6     7   ar
    20     7     8   ar
    21     8     9   ar
    22    14    15   ar
    23    15    10   ar
    24     9     1   ar
    25     9     4   ar
    26    19    20    1
@<TRIPOS>MOLECULE
*****
 24 26 0 0 0
SMALL
GASTEIGER

@<TRIPOS>ATOM
      1 N          63.9204   86.7014   14.0848 N.ar    1  UNL1       -0.2281
      2 N          64.4226   85.9791   15.2998 N.ar    1  UNL1       -0.1635
      3 C          64.2264   84.5085   15.0788 C.ar    1  UNL1        0.1219
      4 C          63.6031   84.3219   13.7273 C.ar    1  UNL1        0.0425
      5 C          63.1832   83.0930   12.9767 C.ar    1  UNL1        0.0744
      6 C          62.5743   83.2194   11.6117 C.ar    1  UNL1        0.0040
      7 C          62.3852   84.5747   10.9974 C.ar    1  UNL1        0.0015
      8 C          62.8050   85.8036   11.7480 C.ar    1  UNL1        0.0192
      9 C          63.4140   85.6772   13.1130 C.ar    1  UNL1        0.0843
     10 C          63.5326   90.2460   12.3425 C.ar    1  UNL1        0.0224
     11 C          63.9315   91.1585   13.4642 C.ar    1  UNL1        0.0969
     12 N          64.3266   90.5852   14.7928 N.ar    1  UNL1       -0.2410
     13 C          64.3230   89.0995   14.9997 C.ar    1  UNL1        0.1179
     14 C          63.9241   88.1871   13.8780 C.ar    1  UNL1        0.1017
     15 C          63.5289   88.7604   12.5493 C.ar    1  UNL1        0.0202
     16 C          64.2940   91.7719   11.0807 C.3     1  UNL1        0.0339
     17 C          63.1374   90.8192   11.0139 C.3     1  UNL1        0.1086
     18 C          61.9807   89.8664   10.9470 C.3     1  UNL1        0.0339
     19 O          62.7422   91.3923    9.6852 O.3     1  UNL1       -0.3826
     20 H          63.3621   92.0967    9.4396 H       1  UNL1        0.2107
     21 C          63.3723   81.7377   13.5910 C.3     1  UNL1        0.4187
     22 F          63.5614   80.3824   14.2053 F       1  UNL1       -0.1659
     23 F          64.6369   81.5577   12.8046 F       1  UNL1       -0.1659
     24 F          62.1078   81.9178   14.3775 F       1  UNL1       -0.1659
@<TRIPOS>BOND
     1    16    17    1
     2    17    18    1
     3    17    19    1
     4    17    10    1
     5    10    11   ar
     6    11    12   ar
     7    12    13   ar
     8    13    14   ar
     9    14     1    1
    10     1     2   ar
    11     2     3   ar
    12     3     4   ar
    13     4     5   ar
    14     5    21    1
    15    21    22    1
    16    21    23    1
    17    21    24    1
    18     5     6   ar
    19     6     7   ar
    20     7     8   ar
    21     8     9   ar
    22    14    15   ar
    23    15    10   ar
    24     9     1   ar
    25     9     4   ar
    26    19    20    1
@<TRIPOS>MOLECULE
*****
 24 26 0 0 0
SMALL
GASTEIGER

@<TRIPOS>ATOM
      1 N          62.5852   85.8239   12.2308 N.ar    1  UNL1       -0.2281
      2 N          62.2455   85.4887   13.6528 N.ar    1  UNL1       -0.1635
      3 C          62.4474   84.0145   13.8424 C.ar    1  UNL1        0.1219
      4 C          62.9120   83.4386   12.5376 C.ar    1  UNL1        0.0425
      5 C          63.2684   82.0404   12.1278 C.ar    1  UNL1        0.0744
      6 C          63.7100   81.7605   10.7219 C.ar    1  UNL1        0.0040
      7 C          63.7952   82.8788    9.7258 C.ar    1  UNL1        0.0015
      8 C          63.4387   84.2770   10.1356 C.ar    1  UNL1        0.0192
      9 C          62.9971   84.5569   11.5415 C.ar    1  UNL1        0.0843
     10 C          63.1200   89.7151   11.6622 C.ar    1  UNL1        0.0224
     11 C          62.4012   89.9128   10.3606 C.ar    1  UNL1        0.0969
     12 N          61.7437   88.7476    9.6824 N.ar    1  UNL1       -0.2410
     13 C          61.8051   87.3846   10.3058 C.ar    1  UNL1        0.1179
     14 C          62.5239   87.1868   11.6074 C.ar    1  UNL1        0.1017
     15 C          63.1814   88.3521   12.2856 C.ar    1  UNL1        0.0202
     16 C          63.9567   91.5527   11.0118 C.3     1  UNL1        0.0339
     17 C          63.7775   90.8802   12.3405 C.3     1  UNL1        0.1086
     18 C          63.5982   90.2077   13.6694 C.3     1  UNL1        0.0339
     19 O          64.4349   92.0453   13.0189 O.3     1  UNL1       -0.3826
     20 H          64.6859   92.7065   12.3550 H       1  UNL1        0.2107
     21 C          63.1832   80.9221   13.1238 C.3     1  UNL1        0.4187
     22 F          63.0981   79.8038   14.1199 F       1  UNL1       -0.1659
     23 F          64.6631   81.0123   13.3516 F       1  UNL1       -0.1659
     24 F          61.7034   80.8319   12.8961 F       1  UNL1       -0.1659
@<TRIPOS>BOND
     1    16    17    1
     2    17    18    1
     3    17    19    1
     4    17    10    1
     5    10    11   ar
     6    11    12   ar
     7    12    13   ar
     8    13    14   ar
     9    14     1    1
    10     1     2   ar
    11     2     3   ar
    12     3     4   ar
    13     4     5   ar
    14     5    21    1
    15    21    22    1
    16    21    23    1
    17    21    24    1
    18     5     6   ar
    19     6     7   ar
    20     7     8   ar
    21     8     9   ar
    22    14    15   ar
    23    15    10   ar
    24     9     1   ar
    25     9     4   ar
    26    19    20    1
