@<TRIPOS>MOLECULE
*****
 34 36 0 0 0
SMALL
GASTEIGER

@<TRIPOS>ATOM
      1 N          62.7097   86.0738   17.2383 N.pl3   1  UNL1       -0.3568
      2 C          63.2068   87.2436   16.4419 C.ar    1  UNL1        0.0482
      3 C          63.1426   88.6262   17.0201 C.ar    1  UNL1        0.0452
      4 C          63.6397   89.7960   16.2236 C.ar    1  UNL1        0.1598
      5 F          63.5756   91.1787   16.8019 F       1  UNL1       -0.2027
      6 C          64.2010   89.5834   14.8490 C.ar    1  UNL1        0.1497
      7 C          64.2651   88.2008   14.2708 C.ar    1  UNL1        0.0280
      8 C          63.7680   87.0309   15.0672 C.ar    1  UNL1        0.0680
      9 H          62.3414   86.2134   18.1406 H       1  UNL1        0.1424
     10 H          62.7518   85.1663   16.8588 H       1  UNL1        0.1424
     11 C          63.8322   85.6483   14.4889 C.2     1  UNL1        0.2507
     12 O          65.1030   84.8564   14.5778 O.2     1  UNL1       -0.2698
     13 N          62.6255   85.0577   13.8217 N.am    1  UNL1       -0.2802
     14 H          61.7915   85.5775   13.7634 H       1  UNL1        0.1552
     15 C          62.6897   83.6752   13.2435 C.ar    1  UNL1        0.0552
     16 C          63.3890   83.4401   11.9375 C.ar    1  UNL1        0.0468
     17 C          63.4531   82.0575   11.3592 C.ar    1  UNL1        0.1709
     18 F          64.1525   81.8225   10.0532 F       1  UNL1       -0.2017
     19 C          62.8179   80.9100   12.0869 C.ar    1  UNL1        0.1947
     20 F          62.8820   79.5275   11.5087 F       1  UNL1       -0.1994
     21 C          62.1185   81.1450   13.3929 C.ar    1  UNL1        0.1709
     22 F          61.4832   79.9975   14.1207 F       1  UNL1       -0.2017
     23 C          62.0544   82.5276   13.9712 C.ar    1  UNL1        0.0468
     24 S          64.6980   90.7532   14.0525 S.O2    1  UNL1        0.0655
     25 O          65.9719   90.7512   14.8446 O.2     1  UNL1       -0.1527
     26 O          63.4242   90.7552   13.2605 O.2     1  UNL1       -0.1527
     27 N          65.1951   91.9231   13.2561 N.3     1  UNL1       -0.1553
     28 C          64.8416   92.0461   11.8036 C.3     1  UNL1        0.0983
     29 C          65.3387   93.2159   11.0071 C.3     1  UNL1        0.0484
     30 C          66.1893   94.2628   11.6632 C.3     1  UNL1        0.1134
     31 O          66.6863   95.4327   10.8668 O.3     1  UNL1       -0.3844
     32 C          66.5428   94.1399   13.1157 C.3     1  UNL1        0.0484
     33 C          66.0457   92.9700   13.9122 C.3     1  UNL1        0.0983
     34 H          67.6393   95.5411   11.0118 H       1  UNL1        0.2103
@<TRIPOS>BOND
     1     1     2    1
     2     2     3   ar
     3     3     4   ar
     4     4     5    1
     5     4     6   ar
     6     6    24    1
     7    24    25    2
     8    24    26    2
     9    24    27    1
    10    27    28    1
    11    28    29    1
    12    29    30    1
    13    30    31    1
    14    30    32    1
    15    32    33    1
    16     6     7   ar
    17     7     8   ar
    18     8    11    1
    19    11    12    2
    20    11    13   am
    21    13    15    1
    22    15    16   ar
    23    16    17   ar
    24    17    18    1
    25    17    19   ar
    26    19    20    1
    27    19    21   ar
    28    21    22    1
    29    21    23   ar
    30     8     2   ar
    31    23    15   ar
    32    33    27    1
    33     1     9    1
    34     1    10    1
    35    31    34    1
    36    13    14    1
@<TRIPOS>MOLECULE
*****
 34 36 0 0 0
SMALL
GASTEIGER

@<TRIPOS>ATOM
      1 N          62.7082   86.0729   17.2395 N.pl3   1  UNL1       -0.3568
      2 C          63.2057   87.2424   16.4427 C.ar    1  UNL1        0.0482
      3 C          63.1420   88.6251   17.0205 C.ar    1  UNL1        0.0452
      4 C          63.6395   89.7946   16.2238 C.ar    1  UNL1        0.1598
      5 F          63.5758   91.1774   16.8016 F       1  UNL1       -0.2027
      6 C          64.2007   89.5813   14.8492 C.ar    1  UNL1        0.1497
      7 C          64.2644   88.1986   14.2713 C.ar    1  UNL1        0.0280
      8 C          63.7669   87.0291   15.0681 C.ar    1  UNL1        0.0680
      9 H          62.3398   86.2129   18.1417 H       1  UNL1        0.1424
     10 H          62.7500   85.1654   16.8602 H       1  UNL1        0.1424
     11 C          63.8306   85.6463   14.4902 C.2     1  UNL1        0.2507
     12 O          65.1007   84.8535   14.5806 O.2     1  UNL1       -0.2698
     13 N          62.6241   85.0564   13.8220 N.am    1  UNL1       -0.2802
     14 H          61.7905   85.5768   13.7627 H       1  UNL1        0.1552
     15 C          62.6878   83.6737   13.2441 C.ar    1  UNL1        0.0552
     16 C          62.0539   82.5262   13.9731 C.ar    1  UNL1        0.0468
     17 C          62.1176   81.1434   13.3952 C.ar    1  UNL1        0.1709
     18 F          61.4836   79.9960   14.1242 F       1  UNL1       -0.2017
     19 C          62.8152   80.9082   12.0883 C.ar    1  UNL1        0.1947
     20 F          62.8788   79.5255   11.5104 F       1  UNL1       -0.1994
     21 C          63.4491   82.0557   11.3593 C.ar    1  UNL1        0.1709
     22 F          64.1467   81.8204   10.0524 F       1  UNL1       -0.2017
     23 C          63.3854   83.4384   11.9372 C.ar    1  UNL1        0.0468
     24 S          64.6982   90.7508   14.0524 S.O2    1  UNL1        0.0655
     25 O          63.4324   90.7410   13.2476 O.2     1  UNL1       -0.1527
     26 O          65.9639   90.7606   14.8572 O.2     1  UNL1       -0.1527
     27 N          65.1957   91.9203   13.2556 N.3     1  UNL1       -0.1553
     28 C          66.0466   92.9670   13.9114 C.3     1  UNL1        0.0983
     29 C          66.5441   94.1365   13.1147 C.3     1  UNL1        0.0484
     30 C          66.1906   94.2592   11.6621 C.3     1  UNL1        0.1134
     31 O          66.6881   95.4287   10.8653 O.3     1  UNL1       -0.3844
     32 C          65.3397   93.2124   11.0063 C.3     1  UNL1        0.0484
     33 C          64.8422   92.0430   11.8031 C.3     1  UNL1        0.0983
     34 H          65.9496   95.8248   10.3769 H       1  UNL1        0.2103
@<TRIPOS>BOND
     1     1     2    1
     2     2     3   ar
     3     3     4   ar
     4     4     5    1
     5     4     6   ar
     6     6    24    1
     7    24    25    2
     8    24    26    2
     9    24    27    1
    10    27    28    1
    11    28    29    1
    12    29    30    1
    13    30    31    1
    14    30    32    1
    15    32    33    1
    16     6     7   ar
    17     7     8   ar
    18     8    11    1
    19    11    12    2
    20    11    13   am
    21    13    15    1
    22    15    16   ar
    23    16    17   ar
    24    17    18    1
    25    17    19   ar
    26    19    20    1
    27    19    21   ar
    28    21    22    1
    29    21    23   ar
    30     8     2   ar
    31    23    15   ar
    32    33    27    1
    33     1     9    1
    34     1    10    1
    35    31    34    1
    36    13    14    1
@<TRIPOS>MOLECULE
*****
 34 36 0 0 0
SMALL
GASTEIGER

@<TRIPOS>ATOM
      1 N          60.2823   87.4327    8.9285 N.pl3   1  UNL1       -0.3568
      2 C          61.1817   88.2505    9.8072 C.ar    1  UNL1        0.0482
      3 C          61.2130   89.7435    9.6659 C.ar    1  UNL1        0.0452
      4 C          62.1125   90.5613   10.5446 C.ar    1  UNL1        0.1598
      5 F          62.1438   92.0544   10.4032 F       1  UNL1       -0.2027
      6 C          62.9806   89.8862   11.5646 C.ar    1  UNL1        0.1497
      7 C          62.9493   88.3932   11.7059 C.ar    1  UNL1        0.0280
      8 C          62.0499   87.5754   10.8272 C.ar    1  UNL1        0.0680
      9 H          59.7125   87.8758    8.2590 H       1  UNL1        0.1424
     10 H          60.2617   86.4528    9.0212 H       1  UNL1        0.1424
     11 C          62.0186   86.0823   10.9685 C.2     1  UNL1        0.2507
     12 O          61.2329   85.2532    9.9963 O.2     1  UNL1       -0.2698
     13 N          62.7731   85.4185   12.0821 N.am    1  UNL1       -0.2802
     14 H          63.2887   85.9627   12.7202 H       1  UNL1        0.1552
     15 C          62.7418   83.9255   12.2235 C.ar    1  UNL1        0.0552
     16 C          63.1466   83.0544   11.0714 C.ar    1  UNL1        0.0468
     17 C          63.1153   81.5614   11.2129 C.ar    1  UNL1        0.1709
     18 F          63.5201   80.6903   10.0608 F       1  UNL1       -0.2017
     19 C          62.6793   80.9395   12.5063 C.ar    1  UNL1        0.1947
     20 F          62.6481   79.4465   12.6477 F       1  UNL1       -0.1994
     21 C          62.2745   81.8106   13.6584 C.ar    1  UNL1        0.1709
     22 F          61.8385   81.1887   14.9519 F       1  UNL1       -0.2017
     23 C          62.3058   83.3036   13.5170 C.ar    1  UNL1        0.0468
     24 S          63.8801   90.7040   12.4433 S.O2    1  UNL1        0.0655
     25 O          64.4689   91.3603   11.2298 O.2     1  UNL1       -0.1527
     26 O          63.2913   90.0478   13.6568 O.2     1  UNL1       -0.1527
     27 N          64.7796   91.5219   13.3220 N.3     1  UNL1       -0.1553
     28 C          65.6421   92.5928   12.7227 C.3     1  UNL1        0.0983
     29 C          66.5415   93.4106   13.6014 C.3     1  UNL1        0.0484
     30 C          66.5785   93.1575   15.0794 C.3     1  UNL1        0.1134
     31 O          67.4779   93.9754   15.9581 O.3     1  UNL1       -0.3844
     32 C          65.7160   92.0866   15.6787 C.3     1  UNL1        0.0484
     33 C          64.8165   91.2688   14.8000 C.3     1  UNL1        0.0983
     34 H          67.9901   93.3864   16.5340 H       1  UNL1        0.2103
@<TRIPOS>BOND
     1     1     2    1
     2     2     3   ar
     3     3     4   ar
     4     4     5    1
     5     4     6   ar
     6     6    24    1
     7    24    25    2
     8    24    26    2
     9    24    27    1
    10    27    28    1
    11    28    29    1
    12    29    30    1
    13    30    31    1
    14    30    32    1
    15    32    33    1
    16     6     7   ar
    17     7     8   ar
    18     8    11    1
    19    11    12    2
    20    11    13   am
    21    13    15    1
    22    15    16   ar
    23    16    17   ar
    24    17    18    1
    25    17    19   ar
    26    19    20    1
    27    19    21   ar
    28    21    22    1
    29    21    23   ar
    30     8     2   ar
    31    23    15   ar
    32    33    27    1
    33     1     9    1
    34     1    10    1
    35    31    34    1
    36    13    14    1
@<TRIPOS>MOLECULE
*****
 34 36 0 0 0
SMALL
GASTEIGER

@<TRIPOS>ATOM
      1 N          60.1382   87.4793    9.1329 N.pl3   1  UNL1       -0.3568
      2 C          61.0675   88.2918    9.9851 C.ar    1  UNL1        0.0482
      3 C          61.0658   89.7881    9.8802 C.ar    1  UNL1        0.0452
      4 C          61.9951   90.6007   10.7324 C.ar    1  UNL1        0.1598
      5 F          61.9935   92.0971   10.6276 F       1  UNL1       -0.2027
      6 C          62.9260   89.9169   11.6894 C.ar    1  UNL1        0.1497
      7 C          62.9276   88.4206   11.7943 C.ar    1  UNL1        0.0280
      8 C          61.9983   87.6081   10.9421 C.ar    1  UNL1        0.0680
      9 H          59.5272   87.9280    8.5047 H       1  UNL1        0.1424
     10 H          60.1393   86.4972    9.2017 H       1  UNL1        0.1424
     11 C          62.0000   86.1117   11.0470 C.2     1  UNL1        0.2507
     12 O          61.2949   85.2865   10.0117 O.2     1  UNL1       -0.2698
     13 N          62.7067   85.4406   12.1872 N.am    1  UNL1       -0.2802
     14 H          63.1695   85.9822   12.8667 H       1  UNL1        0.1552
     15 C          62.7084   83.9443   12.2921 C.ar    1  UNL1        0.0552
     16 C          62.2434   83.2804   13.5542 C.ar    1  UNL1        0.0468
     17 C          62.2451   81.7840   13.6591 C.ar    1  UNL1        0.1709
     18 F          61.7801   81.1201   14.9212 F       1  UNL1       -0.2017
     19 C          62.7118   80.9516   12.5018 C.ar    1  UNL1        0.1947
     20 F          62.7134   79.4553   12.6068 F       1  UNL1       -0.1994
     21 C          63.1768   81.6155   11.2397 C.ar    1  UNL1        0.1709
     22 F          63.6435   80.7831   10.0824 F       1  UNL1       -0.2017
     23 C          63.1751   83.1118   11.1348 C.ar    1  UNL1        0.0468
     24 S          63.8552   90.7295   12.5416 S.O2    1  UNL1        0.0655
     25 O          64.4186   91.3760   11.3109 O.2     1  UNL1       -0.1527
     26 O          63.2919   90.0830   13.7724 O.2     1  UNL1       -0.1527
     27 N          64.7845   91.5421   13.3938 N.3     1  UNL1       -0.1553
     28 C          64.8317   91.3179   14.8762 C.3     1  UNL1        0.0983
     29 C          65.7610   92.1304   15.7284 C.3     1  UNL1        0.0484
     30 C          66.6430   93.1672   15.0982 C.3     1  UNL1        0.1134
     31 O          67.5723   93.9797   15.9504 O.3     1  UNL1       -0.3844
     32 C          66.5957   93.3914   13.6158 C.3     1  UNL1        0.0484
     33 C          65.6665   92.5788   12.7636 C.3     1  UNL1        0.0983
     34 H          67.4690   94.9200   15.7355 H       1  UNL1        0.2103
@<TRIPOS>BOND
     1     1     2    1
     2     2     3   ar
     3     3     4   ar
     4     4     5    1
     5     4     6   ar
     6     6    24    1
     7    24    25    2
     8    24    26    2
     9    24    27    1
    10    27    28    1
    11    28    29    1
    12    29    30    1
    13    30    31    1
    14    30    32    1
    15    32    33    1
    16     6     7   ar
    17     7     8   ar
    18     8    11    1
    19    11    12    2
    20    11    13   am
    21    13    15    1
    22    15    16   ar
    23    16    17   ar
    24    17    18    1
    25    17    19   ar
    26    19    20    1
    27    19    21   ar
    28    21    22    1
    29    21    23   ar
    30     8     2   ar
    31    23    15   ar
    32    33    27    1
    33     1     9    1
    34     1    10    1
    35    31    34    1
    36    13    14    1
@<TRIPOS>MOLECULE
*****
 34 36 0 0 0
SMALL
GASTEIGER

@<TRIPOS>ATOM
      1 N          61.5184   90.6718    9.6280 N.pl3   1  UNL1       -0.3568
      2 C          61.7397   89.2982   10.1887 C.ar    1  UNL1        0.0482
      3 C          60.9188   88.1447    9.6932 C.ar    1  UNL1        0.0452
      4 C          61.1401   86.7711   10.2539 C.ar    1  UNL1        0.1598
      5 F          60.3191   85.6176    9.7584 F       1  UNL1       -0.2027
      6 C          62.1823   86.5511   11.3100 C.ar    1  UNL1        0.1497
      7 C          63.0032   87.7046   11.8054 C.ar    1  UNL1        0.0280
      8 C          62.7819   89.0781   11.2447 C.ar    1  UNL1        0.0680
      9 H          60.8343   90.8162    8.9349 H       1  UNL1        0.1424
     10 H          62.0572   91.4289    9.9532 H       1  UNL1        0.1424
     11 C          63.6028   90.2317   11.7402 C.2     1  UNL1        0.2507
     12 O          63.7256   91.4757   10.9112 O.2     1  UNL1       -0.2698
     13 N          64.3009   90.1412   13.0648 N.am    1  UNL1       -0.2802
     14 H          64.2203   89.3247   13.6089 H       1  UNL1        0.1552
     15 C          65.1219   91.2946   13.5603 C.ar    1  UNL1        0.0552
     16 C          65.4615   92.4256   12.6353 C.ar    1  UNL1        0.0468
     17 C          66.2825   93.5791   13.1309 C.ar    1  UNL1        0.1709
     18 F          66.6221   94.7101   12.2059 F       1  UNL1       -0.2017
     19 C          66.7638   93.6016   14.5513 C.ar    1  UNL1        0.1947
     20 F          67.5847   94.7550   15.0468 F       1  UNL1       -0.1994
     21 C          66.4242   92.4706   15.4763 C.ar    1  UNL1        0.1709
     22 F          66.9055   92.4931   16.8968 F       1  UNL1       -0.2017
     23 C          65.6032   91.3171   14.9808 C.ar    1  UNL1        0.0468
     24 S          62.4036   85.1775   11.8706 S.O2    1  UNL1        0.0655
     25 O          61.9991   85.6670   13.2296 O.2     1  UNL1       -0.1527
     26 O          62.8081   84.6880   10.5117 O.2     1  UNL1       -0.1527
     27 N          62.6249   83.8039   12.4313 N.3     1  UNL1       -0.1553
     28 C          62.9251   82.6578   11.5114 C.3     1  UNL1        0.0983
     29 C          63.1464   81.2842   12.0721 C.3     1  UNL1        0.0484
     30 C          63.0675   81.0568   13.5526 C.3     1  UNL1        0.1134
     31 O          63.2888   79.6832   14.1132 O.3     1  UNL1       -0.3844
     32 C          62.7672   82.2029   14.4724 C.3     1  UNL1        0.0484
     33 C          62.5459   83.5765   13.9118 C.3     1  UNL1        0.0983
     34 H          62.5722   79.4665   14.7301 H       1  UNL1        0.2103
@<TRIPOS>BOND
     1     1     2    1
     2     2     3   ar
     3     3     4   ar
     4     4     5    1
     5     4     6   ar
     6     6    24    1
     7    24    25    2
     8    24    26    2
     9    24    27    1
    10    27    28    1
    11    28    29    1
    12    29    30    1
    13    30    31    1
    14    30    32    1
    15    32    33    1
    16     6     7   ar
    17     7     8   ar
    18     8    11    1
    19    11    12    2
    20    11    13   am
    21    13    15    1
    22    15    16   ar
    23    16    17   ar
    24    17    18    1
    25    17    19   ar
    26    19    20    1
    27    19    21   ar
    28    21    22    1
    29    21    23   ar
    30     8     2   ar
    31    23    15   ar
    32    33    27    1
    33     1     9    1
    34     1    10    1
    35    31    34    1
    36    13    14    1
@<TRIPOS>MOLECULE
*****
 34 36 0 0 0
SMALL
GASTEIGER

@<TRIPOS>ATOM
      1 N          61.5182   90.6731    9.6290 N.pl3   1  UNL1       -0.3568
      2 C          61.7394   89.2996   10.1901 C.ar    1  UNL1        0.0482
      3 C          60.9169   88.1465    9.6966 C.ar    1  UNL1        0.0452
      4 C          61.1380   86.7730   10.2576 C.ar    1  UNL1        0.1598
      5 F          60.3155   85.6198    9.7641 F       1  UNL1       -0.2027
      6 C          62.1817   86.5528   11.3122 C.ar    1  UNL1        0.1497
      7 C          63.0042   87.7060   11.8057 C.ar    1  UNL1        0.0280
      8 C          62.7831   89.0794   11.2446 C.ar    1  UNL1        0.0680
      9 H          60.8332   90.8176    8.9368 H       1  UNL1        0.1424
     10 H          62.0581   91.4299    9.9529 H       1  UNL1        0.1424
     11 C          63.6056   90.2326   11.7382 C.2     1  UNL1        0.2507
     12 O          63.7345   91.4730   10.9047 O.2     1  UNL1       -0.2698
     13 N          64.2993   90.1454   13.0653 N.am    1  UNL1       -0.2802
     14 H          64.2146   89.3313   13.6124 H       1  UNL1        0.1552
     15 C          65.1218   91.2985   13.5589 C.ar    1  UNL1        0.0552
     16 C          65.6071   91.3205   14.9781 C.ar    1  UNL1        0.0468
     17 C          66.4297   92.4737   15.4717 C.ar    1  UNL1        0.1709
     18 F          66.9149   92.4957   16.8908 F       1  UNL1       -0.2017
     19 C          66.7669   93.6049   14.5461 C.ar    1  UNL1        0.1947
     20 F          67.5895   94.7580   15.0397 F       1  UNL1       -0.1994
     21 C          66.2816   93.5829   13.1269 C.ar    1  UNL1        0.1709
     22 F          66.6189   94.7140   12.2013 F       1  UNL1       -0.2017
     23 C          65.4591   92.4298   12.6333 C.ar    1  UNL1        0.0468
     24 S          62.4029   85.1794   11.8733 S.O2    1  UNL1        0.0655
     25 O          62.8136   84.6910   10.5158 O.2     1  UNL1       -0.1527
     26 O          61.9922   85.6678   13.2308 O.2     1  UNL1       -0.1527
     27 N          62.6241   83.8060   12.4343 N.3     1  UNL1       -0.1553
     28 C          62.9227   82.6592   11.5147 C.3     1  UNL1        0.0983
     29 C          63.1439   81.2858   12.0758 C.3     1  UNL1        0.0484
     30 C          63.0664   81.0591   13.5565 C.3     1  UNL1        0.1134
     31 O          63.2876   79.6857   14.1176 O.3     1  UNL1       -0.3844
     32 C          62.7678   82.2058   14.4761 C.3     1  UNL1        0.0484
     33 C          62.5466   83.5793   13.9151 C.3     1  UNL1        0.0983
     34 H          62.5716   79.4696   14.7353 H       1  UNL1        0.2103
@<TRIPOS>BOND
     1     1     2    1
     2     2     3   ar
     3     3     4   ar
     4     4     5    1
     5     4     6   ar
     6     6    24    1
     7    24    25    2
     8    24    26    2
     9    24    27    1
    10    27    28    1
    11    28    29    1
    12    29    30    1
    13    30    31    1
    14    30    32    1
    15    32    33    1
    16     6     7   ar
    17     7     8   ar
    18     8    11    1
    19    11    12    2
    20    11    13   am
    21    13    15    1
    22    15    16   ar
    23    16    17   ar
    24    17    18    1
    25    17    19   ar
    26    19    20    1
    27    19    21   ar
    28    21    22    1
    29    21    23   ar
    30     8     2   ar
    31    23    15   ar
    32    33    27    1
    33     1     9    1
    34     1    10    1
    35    31    34    1
    36    13    14    1
