@<TRIPOS>MOLECULE
*****
 36 40 0 0 0
SMALL
GASTEIGER

@<TRIPOS>ATOM
      1 C          63.9123   89.2808   15.4930 C.ar    1  UNL1        0.0842
      2 N          63.4031   89.8613   16.7789 N.ar    1  UNL1       -0.2437
      3 C          62.8171   88.9628   17.8273 C.ar    1  UNL1        0.0988
      4 C          62.7404   87.4837   17.5898 C.ar    1  UNL1        0.0207
      5 C          63.2497   86.9032   16.3039 C.ar    1  UNL1        0.0043
      6 C          63.1729   85.4241   16.0664 C.ar    1  UNL1        0.0203
      7 C          63.6822   84.8435   14.7805 C.ar    1  UNL1        0.1253
      8 C          64.2682   85.7421   13.7320 C.ar    1  UNL1        0.0202
      9 C          64.3449   87.2212   13.9695 C.ar    1  UNL1        0.0029
     10 C          63.8356   87.8017   15.2555 C.ar    1  UNL1        0.0179
     11 C          63.7161   90.4939   13.2039 C.ar    1  UNL1        0.1401
     12 C          64.3020   91.3925   12.1555 C.ar    1  UNL1        0.0378
     13 C          65.6703   91.9764   12.3476 C.ar    1  UNL1        0.0137
     14 C          66.4526   91.6619   13.5882 C.ar    1  UNL1        0.0579
     15 CL         67.8208   92.2458   13.7803 Cl      1  UNL1       -0.0822
     16 C          65.8666   90.7633   14.6367 C.ar    1  UNL1        0.0159
     17 C          64.4983   90.1794   14.4445 C.ar    1  UNL1        0.0524
     18 C          66.2562   92.8750   11.2991 C.ar    1  UNL1        0.0031
     19 C          65.8852   94.3279   11.2640 C.ar    1  UNL1        0.0002
     20 C          66.4712   95.2265   10.2155 C.ar    1  UNL1        0.0023
     21 C          67.4281   94.6721    9.2021 C.ar    1  UNL1        0.0296
     22 C          67.7990   93.2190    9.2372 C.ar    1  UNL1        0.1401
     23 F          68.7559   92.6646    8.2239 F       1  UNL1       -0.2042
     24 C          67.2131   92.3205   10.2857 C.ar    1  UNL1        0.0297
     25 C          61.8823   89.5259   11.6386 C.3     1  UNL1        0.2525
     26 O          62.3478   89.9100   13.0118 O.3     1  UNL1       -0.4714
     27 S          63.6054   83.3644   14.5430 S.O2    1  UNL1        0.0758
     28 O          62.1383   83.3906   14.8542 O.2     1  UNL1       -0.1499
     29 O          65.0726   83.3383   14.2318 O.2     1  UNL1       -0.1499
     30 N          63.5287   81.8854   14.3055 N.pl3   1  UNL1       -0.1811
     31 H          63.6146   81.2603   15.0613 H       1  UNL1        0.1768
     32 C          63.3212   81.3586   12.9164 C.ar    1  UNL1        0.2751
     33 N          63.6574   82.0752   11.6423 N.ar    1  UNL1       -0.1688
     34 C          63.2850   81.1822   10.4961 C.ar    1  UNL1        0.3175
     35 O          62.7186   79.9136   11.0618 O.2     1  UNL1       -0.3260
     36 N          62.7409   80.0227   12.5576 N.ar    1  UNL1       -0.0381
@<TRIPOS>BOND
     1    25    26    1
     2    26    11    1
     3    11    12   ar
     4    12    13   ar
     5    13    18    1
     6    18    19   ar
     7    19    20   ar
     8    20    21   ar
     9    21    22   ar
    10    22    23    1
    11    22    24   ar
    12    13    14   ar
    13    14    15    1
    14    14    16   ar
    15    16    17   ar
    16    17     1    1
    17     1     2   ar
    18     2     3   ar
    19     3     4   ar
    20     4     5   ar
    21     5     6   ar
    22     6     7   ar
    23     7    27    1
    24    27    28    2
    25    27    29    2
    26    27    30    1
    27    30    32    1
    28    32    33   ar
    29    33    34   ar
    30    34    35   ar
    31    35    36   ar
    32     7     8   ar
    33     8     9   ar
    34     9    10   ar
    35    17    11   ar
    36    10     1   ar
    37    24    18   ar
    38    10     5   ar
    39    36    32   ar
    40    30    31    1
@<TRIPOS>MOLECULE
*****
 36 40 0 0 0
SMALL
GASTEIGER

@<TRIPOS>ATOM
      1 C          64.0923   90.0186   15.1695 C.ar    1  UNL1        0.0842
      2 N          63.5698   90.7418   16.3753 N.ar    1  UNL1       -0.2437
      3 C          62.9770   89.9681   17.5154 C.ar    1  UNL1        0.0988
      4 C          62.9067   88.4712   17.4498 C.ar    1  UNL1        0.0207
      5 C          63.4292   87.7480   16.2440 C.ar    1  UNL1        0.0043
      6 C          63.3590   86.2511   16.1783 C.ar    1  UNL1        0.0203
      7 C          63.8815   85.5279   14.9725 C.ar    1  UNL1        0.1253
      8 C          64.4743   86.3016   13.8323 C.ar    1  UNL1        0.0202
      9 C          64.5445   87.7986   13.8980 C.ar    1  UNL1        0.0029
     10 C          64.0220   88.5217   15.1039 C.ar    1  UNL1        0.0179
     11 C          66.0246   91.4492   14.1848 C.ar    1  UNL1        0.1401
     12 C          66.6174   92.2229   13.0447 C.ar    1  UNL1        0.0378
     13 C          65.8707   92.3398   11.7490 C.ar    1  UNL1        0.0137
     14 C          64.5311   91.6831   11.5935 C.ar    1  UNL1        0.0579
     15 CL         63.7843   91.8000   10.2979 Cl      1  UNL1       -0.0822
     16 C          63.9383   90.9093   12.7337 C.ar    1  UNL1        0.0159
     17 C          64.6851   90.7924   14.0293 C.ar    1  UNL1        0.0524
     18 C          66.4635   93.1135   10.6089 C.ar    1  UNL1        0.0031
     19 C          67.5447   92.5011    9.7688 C.ar    1  UNL1        0.0002
     20 C          68.1375   93.2748    8.6286 C.ar    1  UNL1        0.0023
     21 C          67.6491   94.6610    8.3286 C.ar    1  UNL1        0.0296
     22 C          66.5679   95.2734    9.1687 C.ar    1  UNL1        0.1401
     23 F          66.0795   96.6596    8.8687 F       1  UNL1       -0.2042
     24 C          65.9751   94.4997   10.3089 C.ar    1  UNL1        0.0297
     25 C          68.0653   92.0671   15.6693 C.3     1  UNL1        0.2525
     26 O          66.7714   91.3322   15.4805 O.3     1  UNL1       -0.4714
     27 S          63.8112   84.0310   14.9069 S.O2    1  UNL1        0.0758
     28 O          62.4148   84.0726   15.4530 O.2     1  UNL1       -0.1499
     29 O          65.2076   83.9894   14.3607 O.2     1  UNL1       -0.1499
     30 N          63.7410   82.5341   14.8412 N.pl3   1  UNL1       -0.1811
     31 H          63.9123   81.9973   15.6485 H       1  UNL1        0.1768
     32 C          63.4096   81.8549   13.5454 C.ar    1  UNL1        0.2751
     33 N          63.5613   82.4471   12.1756 N.ar    1  UNL1       -0.1688
     34 C          63.1139   81.4225   11.1756 C.ar    1  UNL1        0.3175
     35 O          62.6856   80.1971   11.9273 O.2     1  UNL1       -0.3260
     36 N          62.8684   80.4644   13.3919 N.ar    1  UNL1       -0.0381
@<TRIPOS>BOND
     1    25    26    1
     2    26    11    1
     3    11    12   ar
     4    12    13   ar
     5    13    18    1
     6    18    19   ar
     7    19    20   ar
     8    20    21   ar
     9    21    22   ar
    10    22    23    1
    11    22    24   ar
    12    13    14   ar
    13    14    15    1
    14    14    16   ar
    15    16    17   ar
    16    17     1    1
    17     1     2   ar
    18     2     3   ar
    19     3     4   ar
    20     4     5   ar
    21     5     6   ar
    22     6     7   ar
    23     7    27    1
    24    27    28    2
    25    27    29    2
    26    27    30    1
    27    30    32    1
    28    32    33   ar
    29    33    34   ar
    30    34    35   ar
    31    35    36   ar
    32     7     8   ar
    33     8     9   ar
    34     9    10   ar
    35    17    11   ar
    36    10     1   ar
    37    24    18   ar
    38    10     5   ar
    39    36    32   ar
    40    30    31    1
@<TRIPOS>MOLECULE
*****
 36 40 0 0 0
SMALL
GASTEIGER

@<TRIPOS>ATOM
      1 C          62.5826   88.0093   11.2142 C.ar    1  UNL1        0.0842
      2 N          61.9574   88.5482    9.9618 N.ar    1  UNL1       -0.2437
      3 C          61.9625   90.0244    9.6962 C.ar    1  UNL1        0.0988
      4 C          62.5928   90.9618   10.6832 C.ar    1  UNL1        0.0207
      5 C          63.2180   90.4229   11.9357 C.ar    1  UNL1        0.0043
      6 C          63.8482   91.3603   12.9226 C.ar    1  UNL1        0.0203
      7 C          64.4734   90.8215   14.1751 C.ar    1  UNL1        0.1253
      8 C          64.4683   89.3451   14.4407 C.ar    1  UNL1        0.0202
      9 C          63.8380   88.4077   13.4537 C.ar    1  UNL1        0.0029
     10 C          63.2128   88.9467   12.2012 C.ar    1  UNL1        0.0179
     11 C          62.4576   85.5662   10.3392 C.ar    1  UNL1        0.1401
     12 C          62.4525   84.0899   10.6047 C.ar    1  UNL1        0.0378
     13 C          62.5673   83.5803   12.0109 C.ar    1  UNL1        0.0137
     14 C          62.6873   84.5471   13.1515 C.ar    1  UNL1        0.0579
     15 CL         62.8022   84.0376   14.5576 Cl      1  UNL1       -0.0822
     16 C          62.6924   86.0235   12.8859 C.ar    1  UNL1        0.0159
     17 C          62.5775   86.5329   11.4798 C.ar    1  UNL1        0.0524
     18 C          62.5623   82.1040   12.2764 C.ar    1  UNL1        0.0031
     19 C          62.3262   81.5929   13.6667 C.ar    1  UNL1        0.0002
     20 C          62.3211   80.1166   13.9323 C.ar    1  UNL1        0.0023
     21 C          62.5521   79.1514   12.8075 C.ar    1  UNL1        0.0296
     22 C          62.7881   79.6626   11.4172 C.ar    1  UNL1        0.1401
     23 F          63.0191   78.6975   10.2924 F       1  UNL1       -0.2042
     24 C          62.7932   81.1389   11.1516 C.ar    1  UNL1        0.0297
     25 C          62.8220   85.2330    7.7885 C.3     1  UNL1        0.2525
     26 O          62.3427   86.0757    8.9331 O.3     1  UNL1       -0.4714
     27 S          65.1036   91.7588   15.1621 S.O2    1  UNL1        0.0758
     28 O          66.2752   91.9390   14.2428 O.2     1  UNL1       -0.1499
     29 O          63.9320   91.5787   16.0813 O.2     1  UNL1       -0.1499
     30 N          65.7339   92.6962   16.1490 N.pl3   1  UNL1       -0.1811
     31 H          65.1737   93.1677   16.8071 H       1  UNL1        0.1768
     32 C          67.2178   92.9153   16.1332 C.ar    1  UNL1        0.2751
     33 N          67.9172   94.1877   15.7568 N.ar    1  UNL1       -0.1688
     34 C          69.3944   93.9592   15.8820 C.ar    1  UNL1        0.3175
     35 O          69.6079   92.5455   16.3358 O.2     1  UNL1       -0.3260
     36 N          68.2627   91.9004   16.4911 N.ar    1  UNL1       -0.0381
@<TRIPOS>BOND
     1    25    26    1
     2    26    11    1
     3    11    12   ar
     4    12    13   ar
     5    13    18    1
     6    18    19   ar
     7    19    20   ar
     8    20    21   ar
     9    21    22   ar
    10    22    23    1
    11    22    24   ar
    12    13    14   ar
    13    14    15    1
    14    14    16   ar
    15    16    17   ar
    16    17     1    1
    17     1     2   ar
    18     2     3   ar
    19     3     4   ar
    20     4     5   ar
    21     5     6   ar
    22     6     7   ar
    23     7    27    1
    24    27    28    2
    25    27    29    2
    26    27    30    1
    27    30    32    1
    28    32    33   ar
    29    33    34   ar
    30    34    35   ar
    31    35    36   ar
    32     7     8   ar
    33     8     9   ar
    34     9    10   ar
    35    17    11   ar
    36    10     1   ar
    37    24    18   ar
    38    10     5   ar
    39    36    32   ar
    40    30    31    1
@<TRIPOS>MOLECULE
*****
 36 40 0 0 0
SMALL
GASTEIGER

@<TRIPOS>ATOM
      1 C          62.3990   89.8425   11.9884 C.ar    1  UNL1        0.0842
      2 N          61.2641   90.6379   11.4147 N.ar    1  UNL1       -0.2437
      3 C          60.1379   89.9388   10.7126 C.ar    1  UNL1        0.0988
      4 C          60.1467   88.4443   10.5842 C.ar    1  UNL1        0.0207
      5 C          61.2816   87.6489   11.1580 C.ar    1  UNL1        0.0043
      6 C          61.2903   86.1545   11.0296 C.ar    1  UNL1        0.0203
      7 C          62.4253   85.3590   11.6034 C.ar    1  UNL1        0.1253
      8 C          63.5515   86.0581   12.3055 C.ar    1  UNL1        0.0202
      9 C          63.5428   87.5526   12.4339 C.ar    1  UNL1        0.0029
     10 C          62.4078   88.3480   11.8601 C.ar    1  UNL1        0.0179
     11 C          63.6487   90.4530   14.1829 C.ar    1  UNL1        0.1401
     12 C          64.7749   91.1520   14.8851 C.ar    1  UNL1        0.0378
     13 C          65.7777   91.9396   14.0949 C.ar    1  UNL1        0.0137
     14 C          65.6542   92.0281   12.6026 C.ar    1  UNL1        0.0579
     15 CL         66.6569   92.8156   11.8125 Cl      1  UNL1       -0.0822
     16 C          64.5280   91.3290   11.9005 C.ar    1  UNL1        0.0159
     17 C          63.5253   90.5415   12.6906 C.ar    1  UNL1        0.0524
     18 C          66.9039   92.6386   14.7971 C.ar    1  UNL1        0.0031
     19 C          67.0730   94.1218   14.6513 C.ar    1  UNL1        0.0002
     20 C          68.1992   94.8209   15.3535 C.ar    1  UNL1        0.0023
     21 C          69.1563   94.0367   16.2014 C.ar    1  UNL1        0.0296
     22 C          68.9871   92.5533   16.3472 C.ar    1  UNL1        0.1401
     23 F          69.9441   91.7691   17.1951 F       1  UNL1       -0.2042
     24 C          67.8609   91.8543   15.6450 C.ar    1  UNL1        0.0297
     25 C          62.9589   89.2501   16.3800 C.3     1  UNL1        0.2525
     26 O          62.6459   89.6654   14.9730 O.3     1  UNL1       -0.4714
     27 S          62.4340   83.8646   11.4750 S.O2    1  UNL1        0.0758
     28 O          62.8041   83.9911   10.0269 O.2     1  UNL1       -0.1499
     29 O          62.0640   83.7380   12.9231 O.2     1  UNL1       -0.1499
     30 N          62.4428   82.3701   11.3467 N.pl3   1  UNL1       -0.1811
     31 H          62.2524   81.9496   10.4771 H       1  UNL1        0.1768
     32 C          62.7416   81.5163   12.5433 C.ar    1  UNL1        0.2751
     33 N          61.7681   80.6245   13.2553 N.ar    1  UNL1       -0.1688
     34 C          62.4912   79.9615   14.3900 C.ar    1  UNL1        0.3175
     35 O          63.9117   80.4435   14.3792 O.2     1  UNL1       -0.3260
     36 N          64.0664   81.4044   13.2379 N.ar    1  UNL1       -0.0381
@<TRIPOS>BOND
     1    25    26    1
     2    26    11    1
     3    11    12   ar
     4    12    13   ar
     5    13    18    1
     6    18    19   ar
     7    19    20   ar
     8    20    21   ar
     9    21    22   ar
    10    22    23    1
    11    22    24   ar
    12    13    14   ar
    13    14    15    1
    14    14    16   ar
    15    16    17   ar
    16    17     1    1
    17     1     2   ar
    18     2     3   ar
    19     3     4   ar
    20     4     5   ar
    21     5     6   ar
    22     6     7   ar
    23     7    27    1
    24    27    28    2
    25    27    29    2
    26    27    30    1
    27    30    32    1
    28    32    33   ar
    29    33    34   ar
    30    34    35   ar
    31    35    36   ar
    32     7     8   ar
    33     8     9   ar
    34     9    10   ar
    35    17    11   ar
    36    10     1   ar
    37    24    18   ar
    38    10     5   ar
    39    36    32   ar
    40    30    31    1
