@<TRIPOS>MOLECULE
*****
 65 72 0 0 0
SMALL
GASTEIGER

@<TRIPOS>ATOM
      1 N          63.8486   95.9407   -4.9059 N.3     1  UNL1       -0.1862
      2 C          63.1657   95.6422   -6.2077 C.3     1  UNL1        0.1775
      3 C          61.6731   95.5022   -6.2567 C.2     1  UNL1        0.2452
      4 O          60.9902   95.2037   -7.5585 O.2     1  UNL1       -0.2732
      5 N          60.8633   95.6606   -5.0041 N.am    1  UNL1       -0.2541
      6 C          59.3707   95.5206   -5.0531 C.3     1  UNL1        0.1577
      7 C          58.5610   95.6790   -3.8005 C.2     1  UNL1        0.2445
      8 O          57.0683   95.5389   -3.8495 O.2     1  UNL1       -0.2731
      9 N          59.2439   95.9774   -2.4987 N.am    1  UNL1       -0.2705
     10 C          60.7365   96.1175   -2.4496 C.3     1  UNL1        0.1359
     11 C          61.5462   95.9591   -3.7023 C.3     1  UNL1        0.1908
     12 N          63.0389   96.0991   -3.6533 N.am    1  UNL1       -0.1863
     13 C          63.7218   96.3976   -2.3515 C.2     1  UNL1        0.3191
     14 O          62.9121   96.5560   -1.0988 O.2     1  UNL1       -0.2512
     15 N          65.2144   96.5376   -2.3024 N.am    1  UNL1       -0.2836
     16 H          65.7459   96.4337   -3.1246 H       1  UNL1        0.1513
     17 C          65.3413   96.0808   -4.8569 C.3     1  UNL1        0.1188
     18 C          66.2946   94.3504   -6.5441 C.2     1  UNL1       -0.0034
     19 C          66.1642   95.7679   -6.0713 C.2     1  UNL1       -0.0071
     20 C          58.6878   95.2221   -6.3548 C.3     1  UNL1        0.0556
     21 C          57.6884   94.1067   -6.4390 C.ar    1  UNL1       -0.0198
     22 C          56.4555   94.2661   -7.2784 C.ar    1  UNL1       -0.0011
     23 C          55.4562   93.1506   -7.3626 C.ar    1  UNL1        0.0363
     24 C          55.6897   91.8758   -6.6075 C.ar    1  UNL1        0.1337
     25 O          54.6903   90.7604   -6.6917 O.3     1  UNL1       -0.5055
     26 C          56.9226   91.7164   -5.7680 C.ar    1  UNL1        0.0363
     27 C          57.9220   92.8318   -5.6838 C.ar    1  UNL1       -0.0011
     28 H          53.9201   90.8600   -7.2160 H       1  UNL1        0.2922
     29 C          58.4341   96.1359   -1.2460 C.3     1  UNL1        0.1217
     30 C          59.0399   95.8041    0.0856 C.ar    1  UNL1        0.0135
     31 C          59.8156   96.8452    0.8369 C.ar    1  UNL1       -0.0012
     32 C          60.4213   96.5135    2.1685 C.ar    1  UNL1       -0.0002
     33 C          60.2513   95.1408    2.7487 C.ar    1  UNL1        0.0015
     34 C          59.4756   94.0998    1.9974 C.ar    1  UNL1        0.0170
     35 C          59.1434   92.6719    2.3150 C.ar    1  UNL1        0.0186
     36 C          58.3325   92.1211    1.1797 C.ar    1  UNL1        0.0759
     37 N          58.1634   93.2085    0.1605 N.ar    1  UNL1       -0.3242
     38 C          57.4186   93.0934   -1.1364 C.3     1  UNL1        0.1305
     39 C          58.8698   94.4314    0.6659 C.ar    1  UNL1        0.0575
     40 C          59.5508   91.9258    3.5509 C.ar    1  UNL1        0.0016
     41 C          60.9687   91.4649    3.7156 C.ar    1  UNL1        0.0013
     42 C          61.3760   90.7188    4.9515 C.ar    1  UNL1        0.0147
     43 C          60.3654   90.4337    6.0227 C.ar    1  UNL1        0.0505
     44 C          58.9475   90.8946    5.8580 C.ar    1  UNL1        0.0147
     45 C          58.5402   91.6406    4.6221 C.ar    1  UNL1        0.0013
     46 N          60.7728   89.6876    7.2586 N.am    1  UNL1       -0.2803
     47 C          60.1822   88.3399    7.5500 C.2     1  UNL1        0.2510
     48 O          59.1842   87.7382    6.6056 O.2     1  UNL1       -0.2698
     49 H          61.4278   90.0825    7.8785 H       1  UNL1        0.1552
     50 C          60.5896   87.5939    8.7859 C.ar    1  UNL1        0.0729
     51 C          61.4007   86.3374    8.6703 C.ar    1  UNL1        0.0089
     52 C          61.8082   85.5913    9.9061 C.ar    1  UNL1        0.0340
     53 C          61.4046   86.1018   11.2576 C.ar    1  UNL1        0.1254
     54 N          61.8120   85.3558   12.4935 N.pl3   1  UNL1       -0.3426
     55 N          60.5935   87.3582   11.3733 N.ar    1  UNL1       -0.2295
     56 C          60.1860   88.1043   10.1374 C.ar    1  UNL1        0.1048
     57 H          62.3443   84.5311   12.4177 H       1  UNL1        0.1437
     58 H          61.5470   85.6908   13.3805 H       1  UNL1        0.1437
     59 C          65.8973   96.8361   -1.0007 C.3     1  UNL1        0.1177
     60 C          65.4891   96.1068    0.2449 C.ar    1  UNL1       -0.0025
     61 C          65.3511   96.8522    1.5392 C.ar    1  UNL1       -0.0026
     62 C          64.9429   96.1229    2.7848 C.ar    1  UNL1       -0.0003
     63 C          64.6727   94.6483    2.7361 C.ar    1  UNL1       -0.0000
     64 C          64.8108   93.9028    1.4417 C.ar    1  UNL1       -0.0003
     65 C          65.2190   94.6321    0.1961 C.ar    1  UNL1       -0.0026
@<TRIPOS>BOND
     1    18    19    2
     2    19    17    1
     3    17     1    1
     4     1     2    1
     5     2     3    1
     6     3     4    2
     7     3     5   am
     8     5     6    1
     9     6    20    1
    10    20    21    1
    11    21    22   ar
    12    22    23   ar
    13    23    24   ar
    14    24    25    1
    15    24    26   ar
    16    26    27   ar
    17     6     7    1
    18     7     8    2
    19     7     9   am
    20     9    29    1
    21    29    30    1
    22    30    31   ar
    23    31    32   ar
    24    32    33   ar
    25    33    34   ar
    26    34    35   ar
    27    35    40    1
    28    40    41   ar
    29    41    42   ar
    30    42    43   ar
    31    43    46    1
    32    46    47   am
    33    47    48    2
    34    47    50    1
    35    50    51   ar
    36    51    52   ar
    37    52    53   ar
    38    53    54    1
    39    53    55   ar
    40    55    56   ar
    41    43    44   ar
    42    44    45   ar
    43    35    36   ar
    44    36    37   ar
    45    37    38    1
    46    37    39   ar
    47     9    10    1
    48    11    10    1
    49    11    12    1
    50    12    13   am
    51    13    14    2
    52    13    15   am
    53    15    59    1
    54    59    60    1
    55    60    61   ar
    56    61    62   ar
    57    62    63   ar
    58    63    64   ar
    59    64    65   ar
    60    12     1    1
    61    65    60   ar
    62    11     5    1
    63    27    21   ar
    64    39    30   ar
    65    39    34   ar
    66    45    40   ar
    67    56    50   ar
    68    25    28    1
    69    46    49    1
    70    54    57    1
    71    54    58    1
    72    15    16    1
