@<TRIPOS>MOLECULE
*****
 26 29 0 0 0
SMALL
GASTEIGER

@<TRIPOS>ATOM
      1 C          62.7850   86.3929   17.6823 C.3     1  UNL1        0.0340
      2 C          63.2141   87.4219   16.6788 C.ar    1  UNL1        0.0107
      3 C          62.9352   88.8745   16.9280 C.ar    1  UNL1        0.0958
      4 N          63.3644   89.9036   15.9244 N.ar    1  UNL1       -0.2440
      5 C          64.0723   89.4800   14.6718 C.ar    1  UNL1        0.0848
      6 C          64.3512   88.0273   14.4225 C.ar    1  UNL1        0.0335
      7 C          63.9221   86.9984   15.4260 C.ar    1  UNL1        0.0471
      8 C          64.5014   90.5090   13.6683 C.ar    1  UNL1        0.0474
      9 C          63.7633   90.6433   12.3693 C.ar    1  UNL1        0.0334
     10 C          64.1925   91.6724   11.3658 C.ar    1  UNL1        0.1403
     11 F          63.4545   91.8067   10.0669 F       1  UNL1       -0.2042
     12 C          65.3597   92.5669   11.6613 C.ar    1  UNL1        0.0319
     13 C          66.0977   92.4326   12.9602 C.ar    1  UNL1        0.0320
     14 C          65.6686   91.4036   13.9637 C.ar    1  UNL1        0.1417
     15 F          66.4067   91.2693   15.2626 F       1  UNL1       -0.2041
     16 N          64.2009   85.5457   15.1768 N.pl3   1  UNL1       -0.3141
     17 H          64.7611   85.0369   15.8065 H       1  UNL1        0.1520
     18 C          63.6264   84.8683   13.9680 C.2     1  UNL1        0.0571
     19 C          63.1808   85.6850   12.7914 C.2     1  UNL1        0.0332
     20 C          62.6062   85.0077   11.5828 C.2     1  UNL1        0.0996
     21 N          62.4772   83.5135   11.5506 N.2     1  UNL1       -0.2441
     22 C          62.9228   82.6968   12.7272 C.2     1  UNL1        0.1094
     23 C          62.9191   81.2187   12.9821 C.2     1  UNL1        0.1387
     24 N          63.4914   80.9825   14.3483 N.2     1  UNL1       -0.1491
     25 N          63.8488   82.3147   14.9379 N.2     1  UNL1       -0.1644
     26 C          63.4974   83.3742   13.9359 C.3     1  UNL1        0.2016
@<TRIPOS>BOND
     1     1     2    1
     2     2     3   ar
     3     3     4   ar
     4     4     5   ar
     5     5     8    1
     6     8     9   ar
     7     9    10   ar
     8    10    11    1
     9    10    12   ar
    10    12    13   ar
    11    13    14   ar
    12    14    15    1
    13     5     6   ar
    14     6     7   ar
    15     7    16    1
    16    16    18    1
    17    18    19    2
    18    19    20    1
    19    20    21    2
    20    21    22    1
    21    22    23    2
    22    23    24    1
    23    24    25    2
    24    25    26    1
    25     7     2   ar
    26    26    18    1
    27    14     8   ar
    28    26    22    1
    29    16    17    1
@<TRIPOS>MOLECULE
*****
 26 29 0 0 0
SMALL
GASTEIGER

@<TRIPOS>ATOM
      1 C          64.4667   88.8882   14.9219 C.3     1  UNL1        0.0340
      2 C          63.7756   88.3994   13.6835 C.ar    1  UNL1        0.0107
      3 C          63.6984   86.9287   13.3987 C.ar    1  UNL1        0.0958
      4 N          63.0074   86.4399   12.1603 N.ar    1  UNL1       -0.2440
      5 C          62.3935   87.4217   11.2068 C.ar    1  UNL1        0.0848
      6 C          62.4707   88.8924   11.4916 C.ar    1  UNL1        0.0335
      7 C          63.1618   89.3812   12.7300 C.ar    1  UNL1        0.0471
      8 C          61.7025   86.9329    9.9685 C.ar    1  UNL1        0.0474
      9 C          62.4334   86.0503    9.0005 C.ar    1  UNL1        0.0334
     10 C          61.7423   85.5615    7.7621 C.ar    1  UNL1        0.1403
     11 F          62.4731   84.6790    6.7942 F       1  UNL1       -0.2042
     12 C          60.3203   85.9553    7.4918 C.ar    1  UNL1        0.0319
     13 C          59.5895   86.8378    8.4598 C.ar    1  UNL1        0.0320
     14 C          60.2806   87.3266    9.6981 C.ar    1  UNL1        0.1417
     15 F          59.5497   88.2091   10.6661 F       1  UNL1       -0.2041
     16 N          63.2390   90.8519   13.0148 N.pl3   1  UNL1       -0.3141
     17 H          62.4889   91.3068   13.4617 H       1  UNL1        0.1520
     18 C          64.4590   91.6295   12.6188 C.2     1  UNL1        0.0571
     19 C          64.7552   91.8729   11.1686 C.2     1  UNL1        0.0332
     20 C          65.9752   92.6505   10.7726 C.2     1  UNL1        0.0996
     21 N          66.8991   93.1848   11.8267 N.2     1  UNL1       -0.2441
     22 C          66.6028   92.9414   13.2769 C.2     1  UNL1        0.1094
     23 C          67.3244   93.3414   14.5296 C.2     1  UNL1        0.1387
     24 N          66.5504   92.8110   15.6998 N.2     1  UNL1       -0.1491
     25 N          65.3504   92.0831   15.1704 N.2     1  UNL1       -0.1644
     26 C          65.3828   92.1637   13.6729 C.3     1  UNL1        0.2016
@<TRIPOS>BOND
     1     1     2    1
     2     2     3   ar
     3     3     4   ar
     4     4     5   ar
     5     5     8    1
     6     8     9   ar
     7     9    10   ar
     8    10    11    1
     9    10    12   ar
    10    12    13   ar
    11    13    14   ar
    12    14    15    1
    13     5     6   ar
    14     6     7   ar
    15     7    16    1
    16    16    18    1
    17    18    19    2
    18    19    20    1
    19    20    21    2
    20    21    22    1
    21    22    23    2
    22    23    24    1
    23    24    25    2
    24    25    26    1
    25     7     2   ar
    26    26    18    1
    27    14     8   ar
    28    26    22    1
    29    16    17    1
@<TRIPOS>MOLECULE
*****
 26 29 0 0 0
SMALL
GASTEIGER

@<TRIPOS>ATOM
      1 C          65.9029   91.7506   14.9109 C.3     1  UNL1        0.0340
      2 C          65.0114   91.0070   13.9610 C.ar    1  UNL1        0.0107
      3 C          64.5059   89.6412   14.3202 C.ar    1  UNL1        0.0958
      4 N          63.6144   88.8976   13.3703 N.ar    1  UNL1       -0.2440
      5 C          63.2284   89.5197   12.0612 C.ar    1  UNL1        0.0848
      6 C          63.7339   90.8856   11.7019 C.ar    1  UNL1        0.0335
      7 C          64.6253   91.6292   12.6518 C.ar    1  UNL1        0.0471
      8 C          62.3369   88.7761   11.1113 C.ar    1  UNL1        0.0474
      9 C          61.5268   89.5290   10.0980 C.ar    1  UNL1        0.0334
     10 C          60.6352   88.7853    9.1480 C.ar    1  UNL1        0.1403
     11 F          59.8251   89.5381    8.1347 F       1  UNL1       -0.2042
     12 C          60.5540   87.2889    9.2116 C.ar    1  UNL1        0.0319
     13 C          61.3641   86.5361   10.2249 C.ar    1  UNL1        0.0320
     14 C          62.2555   87.2797   11.1748 C.ar    1  UNL1        0.1417
     15 F          63.0657   86.5268   12.1882 F       1  UNL1       -0.2041
     16 N          65.1308   92.9950   12.2925 N.pl3   1  UNL1       -0.3141
     17 H          64.7228   93.7935   12.6989 H       1  UNL1        0.1520
     18 C          66.2579   93.1442   11.3141 C.2     1  UNL1        0.0571
     19 C          67.2749   92.0511   11.1691 C.2     1  UNL1        0.0332
     20 C          68.4019   92.2002   10.1907 C.2     1  UNL1        0.0996
     21 N          68.5122   93.4425    9.3572 N.2     1  UNL1       -0.2441
     22 C          67.4952   94.5356    9.5022 C.2     1  UNL1        0.1094
     23 C          67.3457   95.8640    8.8218 C.2     1  UNL1        0.1387
     24 N          66.1261   96.5358    9.3797 N.2     1  UNL1       -0.1491
     25 N          65.5220   95.6226   10.4050 N.2     1  UNL1       -0.1644
     26 C          66.3681   94.3864   10.4806 C.3     1  UNL1        0.2016
@<TRIPOS>BOND
     1     1     2    1
     2     2     3   ar
     3     3     4   ar
     4     4     5   ar
     5     5     8    1
     6     8     9   ar
     7     9    10   ar
     8    10    11    1
     9    10    12   ar
    10    12    13   ar
    11    13    14   ar
    12    14    15    1
    13     5     6   ar
    14     6     7   ar
    15     7    16    1
    16    16    18    1
    17    18    19    2
    18    19    20    1
    19    20    21    2
    20    21    22    1
    21    22    23    2
    22    23    24    1
    23    24    25    2
    24    25    26    1
    25     7     2   ar
    26    26    18    1
    27    14     8   ar
    28    26    22    1
    29    16    17    1
@<TRIPOS>MOLECULE
*****
 26 29 0 0 0
SMALL
GASTEIGER

@<TRIPOS>ATOM
      1 C          59.8841   89.2298    8.4698 C.3     1  UNL1        0.0340
      2 C          60.6122   88.1107    9.1535 C.ar    1  UNL1        0.0107
      3 C          60.6854   86.7587    8.5081 C.ar    1  UNL1        0.0958
      4 N          61.4135   85.6395    9.1919 N.ar    1  UNL1       -0.2440
      5 C          62.0683   85.8724   10.5210 C.ar    1  UNL1        0.0848
      6 C          61.9952   87.2245   11.1666 C.ar    1  UNL1        0.0335
      7 C          61.2671   88.3436   10.4828 C.ar    1  UNL1        0.0471
      8 C          62.7964   84.7534   11.2048 C.ar    1  UNL1        0.0474
      9 C          62.6760   84.5769   12.6895 C.ar    1  UNL1        0.0334
     10 C          63.4041   83.4578   13.3733 C.ar    1  UNL1        0.1403
     11 F          63.2837   83.2813   14.8579 F       1  UNL1       -0.2042
     12 C          64.2526   82.5152   12.5723 C.ar    1  UNL1        0.0319
     13 C          64.3730   82.6917   11.0876 C.ar    1  UNL1        0.0320
     14 C          63.6449   83.8108   10.4039 C.ar    1  UNL1        0.1417
     15 F          63.7654   83.9872    8.9192 F       1  UNL1       -0.2041
     16 N          61.1939   89.6956   11.1283 N.pl3   1  UNL1       -0.3141
     17 H          60.3183   90.0985   11.3289 H       1  UNL1        0.1520
     18 C          62.4547   90.4337   11.4681 C.2     1  UNL1        0.0571
     19 C          63.2019   91.1739   10.3987 C.2     1  UNL1        0.0332
     20 C          64.4627   91.9120   10.7385 C.2     1  UNL1        0.0996
     21 N          64.9764   91.9099   12.1478 N.2     1  UNL1       -0.2441
     22 C          64.2291   91.1698   13.2173 C.2     1  UNL1        0.1094
     23 C          64.4905   90.9904   14.6834 C.2     1  UNL1        0.1387
     24 N          63.3912   90.1414   15.2497 N.2     1  UNL1       -0.1491
     25 N          62.4504   89.7961   14.1335 N.2     1  UNL1       -0.1644
     26 C          62.9683   90.4317   12.8774 C.3     1  UNL1        0.2016
@<TRIPOS>BOND
     1     1     2    1
     2     2     3   ar
     3     3     4   ar
     4     4     5   ar
     5     5     8    1
     6     8     9   ar
     7     9    10   ar
     8    10    11    1
     9    10    12   ar
    10    12    13   ar
    11    13    14   ar
    12    14    15    1
    13     5     6   ar
    14     6     7   ar
    15     7    16    1
    16    16    18    1
    17    18    19    2
    18    19    20    1
    19    20    21    2
    20    21    22    1
    21    22    23    2
    22    23    24    1
    23    24    25    2
    24    25    26    1
    25     7     2   ar
    26    26    18    1
    27    14     8   ar
    28    26    22    1
    29    16    17    1
@<TRIPOS>MOLECULE
*****
 26 29 0 0 0
SMALL
GASTEIGER

@<TRIPOS>ATOM
      1 C          63.7777   90.0403   15.3498 C.3     1  UNL1        0.0340
      2 C          64.5170   90.7488   14.2537 C.ar    1  UNL1        0.0107
      3 C          65.9419   91.1694   14.4604 C.ar    1  UNL1        0.0958
      4 N          66.6813   91.8780   13.3643 N.ar    1  UNL1       -0.2440
      5 C          65.9958   92.1658   12.0616 C.ar    1  UNL1        0.0848
      6 C          64.5708   91.7452   11.8549 C.ar    1  UNL1        0.0335
      7 C          63.8315   91.0367   12.9509 C.ar    1  UNL1        0.0471
      8 C          66.7351   92.8744   10.9655 C.ar    1  UNL1        0.0474
      9 C          67.6552   92.1065   10.0634 C.ar    1  UNL1        0.0334
     10 C          68.3946   92.8151    8.9673 C.ar    1  UNL1        0.1403
     11 F          69.3147   92.0473    8.0652 F       1  UNL1       -0.2042
     12 C          68.2137   94.2915    8.7734 C.ar    1  UNL1        0.0319
     13 C          67.2936   95.0592    9.6755 C.ar    1  UNL1        0.0320
     14 C          66.5543   94.3507   10.7716 C.ar    1  UNL1        0.1417
     15 F          65.6342   95.1186   11.6737 F       1  UNL1       -0.2041
     16 N          62.4066   90.6161   12.7443 N.pl3   1  UNL1       -0.3141
     17 H          61.7018   90.9541   13.3428 H       1  UNL1        0.1520
     18 C          62.0555   89.6804   11.6256 C.2     1  UNL1        0.0571
     19 C          61.3624   90.2015   10.4017 C.2     1  UNL1        0.0332
     20 C          61.0113   89.2659    9.2831 C.2     1  UNL1        0.0996
     21 N          61.3533   87.8091    9.3884 N.2     1  UNL1       -0.2441
     22 C          62.0464   87.2881   10.6123 C.2     1  UNL1        0.1094
     23 C          62.5063   85.9130   10.9965 C.2     1  UNL1        0.1387
     24 N          63.1417   85.9988   12.3526 N.2     1  UNL1       -0.1491
     25 N          63.0744   87.4269   12.8065 N.2     1  UNL1       -0.1644
     26 C          62.3975   88.2238   11.7310 C.3     1  UNL1        0.2016
@<TRIPOS>BOND
     1     1     2    1
     2     2     3   ar
     3     3     4   ar
     4     4     5   ar
     5     5     8    1
     6     8     9   ar
     7     9    10   ar
     8    10    11    1
     9    10    12   ar
    10    12    13   ar
    11    13    14   ar
    12    14    15    1
    13     5     6   ar
    14     6     7   ar
    15     7    16    1
    16    16    18    1
    17    18    19    2
    18    19    20    1
    19    20    21    2
    20    21    22    1
    21    22    23    2
    22    23    24    1
    23    24    25    2
    24    25    26    1
    25     7     2   ar
    26    26    18    1
    27    14     8   ar
    28    26    22    1
    29    16    17    1
@<TRIPOS>MOLECULE
*****
 26 29 0 0 0
SMALL
GASTEIGER

@<TRIPOS>ATOM
      1 C          59.8471   87.5925    9.2323 C.3     1  UNL1        0.0340
      2 C          60.8748   88.3565   10.0134 C.ar    1  UNL1        0.0107
      3 C          61.1619   89.7892    9.6743 C.ar    1  UNL1        0.0958
      4 N          62.1897   90.5533   10.4554 N.ar    1  UNL1       -0.2440
      5 C          62.9301   89.8848   11.5755 C.ar    1  UNL1        0.0848
      6 C          62.6430   88.4521   11.9146 C.ar    1  UNL1        0.0335
      7 C          61.6153   87.6880   11.1335 C.ar    1  UNL1        0.0471
      8 C          63.9578   90.6489   12.3565 C.ar    1  UNL1        0.0474
      9 C          64.6492   91.8262   11.7354 C.ar    1  UNL1        0.0334
     10 C          65.6770   92.5903   12.5166 C.ar    1  UNL1        0.1403
     11 F          66.3684   93.7676   11.8955 F       1  UNL1       -0.2042
     12 C          66.0131   92.1770   13.9188 C.ar    1  UNL1        0.0319
     13 C          65.3216   90.9997   14.5398 C.ar    1  UNL1        0.0320
     14 C          64.2940   90.2356   13.7588 C.ar    1  UNL1        0.1417
     15 F          63.6025   89.0583   14.3799 F       1  UNL1       -0.2041
     16 N          61.3281   86.2553   11.4726 N.pl3   1  UNL1       -0.3141
     17 H          60.4230   85.9877   11.7527 H       1  UNL1        0.1520
     18 C          62.4199   85.2305   11.3850 C.2     1  UNL1        0.0571
     19 C          62.8803   84.7378   10.0451 C.2     1  UNL1        0.0332
     20 C          63.9720   83.7130    9.9574 C.2     1  UNL1        0.0996
     21 N          64.6035   83.1808   11.2097 N.2     1  UNL1       -0.2441
     22 C          64.1431   83.6735   12.5496 C.2     1  UNL1        0.1094
     23 C          64.5744   83.3351   13.9458 C.2     1  UNL1        0.1387
     24 N          63.7492   84.1508   14.8963 N.2     1  UNL1       -0.1491
     25 N          62.8079   84.9933   14.0876 N.2     1  UNL1       -0.1644
     26 C          63.0513   84.6983   12.6372 C.3     1  UNL1        0.2016
@<TRIPOS>BOND
     1     1     2    1
     2     2     3   ar
     3     3     4   ar
     4     4     5   ar
     5     5     8    1
     6     8     9   ar
     7     9    10   ar
     8    10    11    1
     9    10    12   ar
    10    12    13   ar
    11    13    14   ar
    12    14    15    1
    13     5     6   ar
    14     6     7   ar
    15     7    16    1
    16    16    18    1
    17    18    19    2
    18    19    20    1
    19    20    21    2
    20    21    22    1
    21    22    23    2
    22    23    24    1
    23    24    25    2
    24    25    26    1
    25     7     2   ar
    26    26    18    1
    27    14     8   ar
    28    26    22    1
    29    16    17    1
@<TRIPOS>MOLECULE
*****
 26 29 0 0 0
SMALL
GASTEIGER

@<TRIPOS>ATOM
      1 C          63.7415   90.0643   15.3578 C.3     1  UNL1        0.0340
      2 C          64.4838   90.7799   14.2683 C.ar    1  UNL1        0.0107
      3 C          65.8579   91.3223   14.5281 C.ar    1  UNL1        0.0958
      4 N          66.6002   92.0380   13.4386 N.ar    1  UNL1       -0.2440
      5 C          65.9683   92.2111   12.0893 C.ar    1  UNL1        0.0848
      6 C          64.5942   91.6686   11.8294 C.ar    1  UNL1        0.0335
      7 C          63.8519   90.9531   12.9189 C.ar    1  UNL1        0.0471
      8 C          66.7106   92.9267   10.9998 C.ar    1  UNL1        0.0474
      9 C          67.6272   92.1633   10.0903 C.ar    1  UNL1        0.0334
     10 C          68.3694   92.8790    9.0007 C.ar    1  UNL1        0.1403
     11 F          69.2860   92.1157    8.0913 F       1  UNL1       -0.2042
     12 C          68.1950   94.3579    8.8208 C.ar    1  UNL1        0.0319
     13 C          67.2784   95.1211    9.7303 C.ar    1  UNL1        0.0320
     14 C          66.5362   94.4056   10.8198 C.ar    1  UNL1        0.1417
     15 F          65.6196   95.1689   11.7293 F       1  UNL1       -0.2041
     16 N          62.4778   90.4106   12.6590 N.pl3   1  UNL1       -0.3141
     17 H          61.6854   90.9178   12.9490 H       1  UNL1        0.1520
     18 C          62.3110   89.0954   11.9573 C.2     1  UNL1        0.0571
     19 C          63.0213   87.8771   12.4686 C.2     1  UNL1        0.0332
     20 C          62.8545   86.5620   11.7670 C.2     1  UNL1        0.0996
     21 N          61.9774   86.4649   10.5539 N.2     1  UNL1       -0.2441
     22 C          61.2672   87.6831   10.0426 C.2     1  UNL1        0.1094
     23 C          60.3440   87.8923    8.8790 C.2     1  UNL1        0.1387
     24 N          59.9403   89.3369    8.8615 N.2     1  UNL1       -0.1491
     25 N          60.6139   90.0204   10.0143 N.2     1  UNL1       -0.1644
     26 C          61.4340   88.9984   10.7443 C.3     1  UNL1        0.2016
@<TRIPOS>BOND
     1     1     2    1
     2     2     3   ar
     3     3     4   ar
     4     4     5   ar
     5     5     8    1
     6     8     9   ar
     7     9    10   ar
     8    10    11    1
     9    10    12   ar
    10    12    13   ar
    11    13    14   ar
    12    14    15    1
    13     5     6   ar
    14     6     7   ar
    15     7    16    1
    16    16    18    1
    17    18    19    2
    18    19    20    1
    19    20    21    2
    20    21    22    1
    21    22    23    2
    22    23    24    1
    23    24    25    2
    24    25    26    1
    25     7     2   ar
    26    26    18    1
    27    14     8   ar
    28    26    22    1
    29    16    17    1
@<TRIPOS>MOLECULE
*****
 26 29 0 0 0
SMALL
GASTEIGER

@<TRIPOS>ATOM
      1 C          59.7027   87.0445    8.6429 C.3     1  UNL1        0.0340
      2 C          60.6390   87.8786    9.4659 C.ar    1  UNL1        0.0107
      3 C          60.8151   89.3356    9.1557 C.ar    1  UNL1        0.0958
      4 N          61.7515   90.1698    9.9788 N.ar    1  UNL1       -0.2440
      5 C          62.5117   89.5471   11.1120 C.ar    1  UNL1        0.0848
      6 C          62.3356   88.0901   11.4222 C.ar    1  UNL1        0.0335
      7 C          61.3992   87.2559   10.5992 C.ar    1  UNL1        0.0471
      8 C          63.4480   90.3813   11.9350 C.ar    1  UNL1        0.0474
      9 C          63.6429   90.0751   13.3905 C.ar    1  UNL1        0.0334
     10 C          64.5793   90.9093   14.2136 C.ar    1  UNL1        0.1403
     11 F          64.7742   90.6032   15.6689 F       1  UNL1       -0.2042
     12 C          65.3206   92.0496   13.5811 C.ar    1  UNL1        0.0319
     13 C          65.1257   92.3558   12.1257 C.ar    1  UNL1        0.0320
     14 C          64.1894   91.5216   11.3027 C.ar    1  UNL1        0.1417
     15 F          63.9944   91.8278    9.8472 F       1  UNL1       -0.2041
     16 N          61.2231   85.7989   10.9094 N.pl3   1  UNL1       -0.3141
     17 H          60.3190   85.4244   11.0172 H       1  UNL1        0.1520
     18 C          62.4244   84.9126   11.0553 C.2     1  UNL1        0.0571
     19 C          63.0862   84.3397    9.8372 C.2     1  UNL1        0.0332
     20 C          64.2874   83.4534    9.9831 C.2     1  UNL1        0.0996
     21 N          64.8271   83.1400   11.3472 N.2     1  UNL1       -0.2441
     22 C          64.1653   83.7129   12.5653 C.2     1  UNL1        0.1094
     23 C          64.4695   83.5815   14.0282 C.2     1  UNL1        0.1387
     24 N          63.4561   84.3866   14.7864 N.2     1  UNL1       -0.1491
     25 N          62.5257   85.0156   13.7921 N.2     1  UNL1       -0.1644
     26 C          62.9640   84.5992   12.4194 C.3     1  UNL1        0.2016
@<TRIPOS>BOND
     1     1     2    1
     2     2     3   ar
     3     3     4   ar
     4     4     5   ar
     5     5     8    1
     6     8     9   ar
     7     9    10   ar
     8    10    11    1
     9    10    12   ar
    10    12    13   ar
    11    13    14   ar
    12    14    15    1
    13     5     6   ar
    14     6     7   ar
    15     7    16    1
    16    16    18    1
    17    18    19    2
    18    19    20    1
    19    20    21    2
    20    21    22    1
    21    22    23    2
    22    23    24    1
    23    24    25    2
    24    25    26    1
    25     7     2   ar
    26    26    18    1
    27    14     8   ar
    28    26    22    1
    29    16    17    1
@<TRIPOS>MOLECULE
*****
 26 29 0 0 0
SMALL
GASTEIGER

@<TRIPOS>ATOM
      1 C          63.5599   89.5580   12.6304 C.3     1  UNL1        0.0340
      2 C          63.3666   88.0715   12.6844 C.ar    1  UNL1        0.0107
      3 C          63.8987   87.2878   13.8474 C.ar    1  UNL1        0.0958
      4 N          63.7054   85.8012   13.9014 N.ar    1  UNL1       -0.2440
      5 C          62.9800   85.0984   12.7925 C.ar    1  UNL1        0.0848
      6 C          62.4478   85.8822   11.6295 C.ar    1  UNL1        0.0335
      7 C          62.6411   87.3687   11.5755 C.ar    1  UNL1        0.0471
      8 C          62.7867   83.6119   12.8465 C.ar    1  UNL1        0.0474
      9 C          62.9934   82.7835   11.6132 C.ar    1  UNL1        0.0334
     10 C          62.8000   81.2969   11.6673 C.ar    1  UNL1        0.1403
     11 F          63.0067   80.4684   10.4341 F       1  UNL1       -0.2042
     12 C          62.4001   80.6390   12.9546 C.ar    1  UNL1        0.0319
     13 C          62.1935   81.4674   14.1878 C.ar    1  UNL1        0.0320
     14 C          62.3868   82.9539   14.1338 C.ar    1  UNL1        0.1417
     15 F          62.1802   83.7824   15.3670 F       1  UNL1       -0.2041
     16 N          62.1089   88.1524   10.4125 N.pl3   1  UNL1       -0.3141
     17 H          62.3554   89.0992   10.3028 H       1  UNL1        0.1520
     18 C          61.2011   87.4936    9.4166 C.2     1  UNL1        0.0571
     19 C          59.7704   87.9297    9.3026 C.2     1  UNL1        0.0332
     20 C          58.8626   87.2709    8.3067 C.2     1  UNL1        0.0996
     21 N          59.3854   86.1760    7.4247 N.2     1  UNL1       -0.2441
     22 C          60.8161   85.7399    7.5387 C.2     1  UNL1        0.1094
     23 C          61.6082   84.6957    6.8093 C.2     1  UNL1        0.1387
     24 N          63.0056   84.7091    7.3544 N.2     1  UNL1       -0.1491
     25 N          63.0771   85.7616    8.4207 N.2     1  UNL1       -0.1644
     26 C          61.7239   86.3987    8.5346 C.3     1  UNL1        0.2016
@<TRIPOS>BOND
     1     1     2    1
     2     2     3   ar
     3     3     4   ar
     4     4     5   ar
     5     5     8    1
     6     8     9   ar
     7     9    10   ar
     8    10    11    1
     9    10    12   ar
    10    12    13   ar
    11    13    14   ar
    12    14    15    1
    13     5     6   ar
    14     6     7   ar
    15     7    16    1
    16    16    18    1
    17    18    19    2
    18    19    20    1
    19    20    21    2
    20    21    22    1
    21    22    23    2
    22    23    24    1
    23    24    25    2
    24    25    26    1
    25     7     2   ar
    26    26    18    1
    27    14     8   ar
    28    26    22    1
    29    16    17    1
