@<TRIPOS>MOLECULE
*****
 38 42 0 0 0
SMALL
GASTEIGER

@<TRIPOS>ATOM
      1 C          63.2400   87.1570   16.2001 C.ar    1  UNL1        0.0317
      2 C          62.7530   87.5684   17.5579 C.ar    1  UNL1        0.0880
      3 N          63.0604   89.0254   17.7388 N.ar    1  UNL1       -0.2888
      4 N          63.7375   89.5144   16.4928 N.ar    1  UNL1       -0.2292
      5 C          64.3459   90.7171   15.8345 C.ar    1  UNL1        0.1527
      6 C          64.8329   90.3057   14.4768 C.ar    1  UNL1        0.1050
      7 N          64.5255   88.8488   14.2959 N.ar    1  UNL1       -0.2252
      8 C          63.8485   88.3597   15.5418 C.ar    1  UNL1        0.1593
      9 H          62.8541   89.5658   18.5354 H       1  UNL1        0.1875
     10 C          62.8270   81.6648   13.8199 C.2     1  UNL1        0.2923
     11 O          63.9799   81.0925   13.0497 O.2     1  UNL1       -0.2604
     12 N          62.9302   83.0378   14.4150 N.am    1  UNL1       -0.2695
     13 C          61.7773   83.6101   15.1852 C.3     1  UNL1        0.0946
     14 C          61.8806   84.9831   15.7803 C.3     1  UNL1        0.0261
     15 C          63.1368   85.7840   15.6051 C.3     1  UNL1        0.0303
     16 C          64.2897   85.2117   14.8348 C.3     1  UNL1        0.0261
     17 C          64.1864   83.8386   14.2398 C.3     1  UNL1        0.0946
     18 C          59.0582   79.2627   14.3456 C.3     1  UNL1        0.0905
     19 C          60.3145   80.0634   14.1704 C.1     1  UNL1       -0.0810
     20 C          61.5708   80.8640   13.9952 C.1     1  UNL1       -0.0071
     21 C          65.5086   91.1951   13.4756 C.ar    1  UNL1        0.0195
     22 C          66.9434   91.5874   13.6690 C.ar    1  UNL1        0.0047
     23 C          67.6192   92.4768   12.6678 C.ar    1  UNL1        0.0375
     24 C          66.8602   92.9739   11.4734 C.ar    1  UNL1        0.1453
     25 C          65.4254   92.5816   11.2801 C.ar    1  UNL1        0.0375
     26 C          64.7496   91.6922   12.2812 C.ar    1  UNL1        0.0047
     27 O          67.5360   93.8634   10.4723 O.3     1  UNL1       -0.4535
     28 C          66.7321   94.8607    9.6919 C.ar    1  UNL1        0.1453
     29 C          66.9678   95.0269    8.2198 C.ar    1  UNL1        0.0375
     30 C          66.1638   96.0242    7.4394 C.ar    1  UNL1        0.0031
     31 C          65.1242   96.8553    8.1310 C.ar    1  UNL1        0.0002
     32 C          64.8885   96.6892    9.6030 C.ar    1  UNL1        0.0031
     33 C          65.6924   95.6918   10.3835 C.ar    1  UNL1        0.0375
     34 C          64.4491   92.0902   16.4295 C.2     1  UNL1        0.2620
     35 N          65.7954   92.7174   16.6393 N.am    1  UNL1       -0.3240
     36 O          63.2060   92.8360   16.8149 O.2     1  UNL1       -0.2687
     37 H          66.6113   92.2279   16.3863 H       1  UNL1        0.1453
     38 H          65.8632   93.6186   17.0298 H       1  UNL1        0.1453
@<TRIPOS>BOND
     1    18    19    1
     2    19    20    3
     3    20    10    1
     4    10    11    2
     5    10    12   am
     6    12    13    1
     7    13    14    1
     8    14    15    1
     9    15     1    1
    10     1     2   ar
    11     2     3   ar
    12     3     4   ar
    13     4     5   ar
    14     5    34    1
    15    34    35   am
    16    34    36    2
    17     5     6   ar
    18     6    21    1
    19    21    22   ar
    20    22    23   ar
    21    23    24   ar
    22    24    27    1
    23    27    28    1
    24    28    29   ar
    25    29    30   ar
    26    30    31   ar
    27    31    32   ar
    28    32    33   ar
    29    24    25   ar
    30    25    26   ar
    31     6     7   ar
    32     7     8   ar
    33    15    16    1
    34    16    17    1
    35    17    12    1
    36     8     1   ar
    37     8     4   ar
    38    26    21   ar
    39    33    28   ar
    40     3     9    1
    41    35    37    1
    42    35    38    1
@<TRIPOS>MOLECULE
*****
 38 42 0 0 0
SMALL
GASTEIGER

@<TRIPOS>ATOM
      1 C          64.7436   90.9606   14.7121 C.ar    1  UNL1        0.0317
      2 C          64.1736   91.6977   15.8876 C.ar    1  UNL1        0.0880
      3 N          63.4697   90.7026   16.7617 N.ar    1  UNL1       -0.2888
      4 N          63.6046   89.3504   16.1265 N.ar    1  UNL1       -0.2292
      5 C          63.2530   87.8997   16.2742 C.ar    1  UNL1        0.1527
      6 C          63.8231   87.1626   15.0987 C.ar    1  UNL1        0.1050
      7 N          64.5269   88.1577   14.2246 N.ar    1  UNL1       -0.2252
      8 C          64.3920   89.5099   14.8598 C.ar    1  UNL1        0.1593
      9 H          63.0013   90.9019   17.6044 H       1  UNL1        0.1875
     10 C          67.8795   93.3887   10.2098 C.2     1  UNL1        0.2923
     11 O          69.3277   93.0411   10.0316 O.2     1  UNL1       -0.2604
     12 N          67.0955   92.7817   11.3353 N.am    1  UNL1       -0.2695
     13 C          65.6473   93.1292   11.5135 C.3     1  UNL1        0.0946
     14 C          64.8633   92.5222   12.6391 C.3     1  UNL1        0.0261
     15 C          65.5276   91.5676   13.5865 C.3     1  UNL1        0.0303
     16 C          66.9758   91.2200   13.4083 C.3     1  UNL1        0.0261
     17 C          67.7598   91.8271   12.2827 C.3     1  UNL1        0.0946
     18 C          65.8865   96.2525    7.3678 C.3     1  UNL1        0.0905
     19 C          66.5508   95.2979    8.3152 C.1     1  UNL1       -0.0810
     20 C          67.2152   94.3432    9.2624 C.1     1  UNL1       -0.0071
     21 C          63.7092   85.6891   14.8424 C.ar    1  UNL1        0.0195
     22 C          62.3599   85.0343   14.8172 C.ar    1  UNL1        0.0047
     23 C          62.2460   83.5607   14.5609 C.ar    1  UNL1        0.0375
     24 C          63.4814   82.7420   14.3298 C.ar    1  UNL1        0.1453
     25 C          64.8307   83.3968   14.3550 C.ar    1  UNL1        0.0375
     26 C          64.9446   84.8704   14.6113 C.ar    1  UNL1        0.0047
     27 O          63.3675   81.2685   14.0735 O.3     1  UNL1       -0.4535
     28 C          63.1812   80.7629   12.6737 C.ar    1  UNL1        0.1453
     29 C          63.4470   81.6683   11.5076 C.ar    1  UNL1        0.0375
     30 C          63.2606   81.1627   10.1078 C.ar    1  UNL1        0.0031
     31 C          62.8084   79.7517    9.8739 C.ar    1  UNL1        0.0002
     32 C          62.5426   78.8463   11.0399 C.ar    1  UNL1        0.0031
     33 C          62.7290   79.3519   12.4398 C.ar    1  UNL1        0.0375
     34 C          62.4690   87.2927   17.3998 C.2     1  UNL1        0.2620
     35 N          62.9475   87.4427   18.8134 N.am    1  UNL1       -0.3240
     36 O          61.2066   86.5356   17.1116 O.2     1  UNL1       -0.2687
     37 H          63.7761   87.9396   19.0026 H       1  UNL1        0.1453
     38 H          62.4329   87.0443   19.5522 H       1  UNL1        0.1453
@<TRIPOS>BOND
     1    18    19    1
     2    19    20    3
     3    20    10    1
     4    10    11    2
     5    10    12   am
     6    12    13    1
     7    13    14    1
     8    14    15    1
     9    15     1    1
    10     1     2   ar
    11     2     3   ar
    12     3     4   ar
    13     4     5   ar
    14     5    34    1
    15    34    35   am
    16    34    36    2
    17     5     6   ar
    18     6    21    1
    19    21    22   ar
    20    22    23   ar
    21    23    24   ar
    22    24    27    1
    23    27    28    1
    24    28    29   ar
    25    29    30   ar
    26    30    31   ar
    27    31    32   ar
    28    32    33   ar
    29    24    25   ar
    30    25    26   ar
    31     6     7   ar
    32     7     8   ar
    33    15    16    1
    34    16    17    1
    35    17    12    1
    36     8     1   ar
    37     8     4   ar
    38    26    21   ar
    39    33    28   ar
    40     3     9    1
    41    35    37    1
    42    35    38    1
@<TRIPOS>MOLECULE
*****
 38 42 0 0 0
SMALL
GASTEIGER

@<TRIPOS>ATOM
      1 C          63.2424   87.2784   16.0536 C.ar    1  UNL1        0.0317
      2 C          62.8214   87.6983   17.4307 C.ar    1  UNL1        0.0880
      3 N          63.1955   89.1398   17.6103 N.ar    1  UNL1       -0.2888
      4 N          63.8477   89.6107   16.3443 N.ar    1  UNL1       -0.2292
      5 C          64.4819   90.7926   15.6728 C.ar    1  UNL1        0.1527
      6 C          64.9028   90.3726   14.2958 C.ar    1  UNL1        0.1050
      7 N          64.5288   88.9312   14.1161 N.ar    1  UNL1       -0.2252
      8 C          63.8767   88.4603   15.3821 C.ar    1  UNL1        0.1593
      9 H          63.0402   89.6816   18.4175 H       1  UNL1        0.1875
     10 C          62.5169   81.8279   13.6523 C.2     1  UNL1        0.2923
     11 O          61.8923   80.7294   14.4604 O.2     1  UNL1       -0.2604
     12 N          62.6983   83.1905   14.2526 N.am    1  UNL1       -0.2695
     13 C          63.3229   84.2890   13.4444 C.3     1  UNL1        0.0946
     14 C          63.5043   85.6516   14.0448 C.3     1  UNL1        0.0261
     15 C          63.0610   85.9158   15.4533 C.3     1  UNL1        0.0303
     16 C          62.4364   84.8173   16.2614 C.3     1  UNL1        0.0261
     17 C          62.2550   83.4546   15.6611 C.3     1  UNL1        0.0946
     18 C          63.8467   81.0359    9.4268 C.3     1  UNL1        0.0905
     19 C          63.4034   81.2999   10.8354 C.1     1  UNL1       -0.0810
     20 C          62.9601   81.5639   12.2439 C.1     1  UNL1       -0.0071
     21 C          65.5791   91.2416   13.2772 C.ar    1  UNL1        0.0195
     22 C          67.0196   91.6211   13.4529 C.ar    1  UNL1        0.0047
     23 C          67.6959   92.4901   12.4343 C.ar    1  UNL1        0.0375
     24 C          66.9317   92.9795   11.2399 C.ar    1  UNL1        0.1453
     25 C          65.4912   92.5999   11.0642 C.ar    1  UNL1        0.0375
     26 C          64.8150   91.7310   12.0828 C.ar    1  UNL1        0.0047
     27 O          67.6080   93.8484   10.2213 O.3     1  UNL1       -0.4535
     28 C          66.8090   94.8485    9.4395 C.ar    1  UNL1        0.1453
     29 C          65.9039   95.8084   10.1534 C.ar    1  UNL1        0.0375
     30 C          65.1048   96.8085    9.3715 C.ar    1  UNL1        0.0031
     31 C          65.2108   96.8487    7.8758 C.ar    1  UNL1        0.0002
     32 C          66.1158   95.8889    7.1620 C.ar    1  UNL1        0.0031
     33 C          66.9149   94.8888    7.9438 C.ar    1  UNL1        0.0375
     34 C          64.6633   92.1552   16.2731 C.2     1  UNL1        0.2620
     35 N          66.0432   92.6814   16.5360 N.am    1  UNL1       -0.3240
     36 O          63.4648   92.9918   16.6105 O.2     1  UNL1       -0.2687
     37 H          66.8298   92.1323   16.3146 H       1  UNL1        0.1453
     38 H          66.1622   93.5757   16.9300 H       1  UNL1        0.1453
@<TRIPOS>BOND
     1    18    19    1
     2    19    20    3
     3    20    10    1
     4    10    11    2
     5    10    12   am
     6    12    13    1
     7    13    14    1
     8    14    15    1
     9    15     1    1
    10     1     2   ar
    11     2     3   ar
    12     3     4   ar
    13     4     5   ar
    14     5    34    1
    15    34    35   am
    16    34    36    2
    17     5     6   ar
    18     6    21    1
    19    21    22   ar
    20    22    23   ar
    21    23    24   ar
    22    24    27    1
    23    27    28    1
    24    28    29   ar
    25    29    30   ar
    26    30    31   ar
    27    31    32   ar
    28    32    33   ar
    29    24    25   ar
    30    25    26   ar
    31     6     7   ar
    32     7     8   ar
    33    15    16    1
    34    16    17    1
    35    17    12    1
    36     8     1   ar
    37     8     4   ar
    38    26    21   ar
    39    33    28   ar
    40     3     9    1
    41    35    37    1
    42    35    38    1
