@<TRIPOS>MOLECULE
*****
 33 37 0 0 0
SMALL
GASTEIGER

@<TRIPOS>ATOM
      1 N          62.7541   84.9609   10.1136 N.3     1  UNL1       -0.2672
      2 C          62.4782   85.4348   11.5098 C.3     1  UNL1        0.0898
      3 C          62.1190   86.8700   11.7575 C.3     1  UNL1        0.0899
      4 N          62.0358   87.8312   10.6089 N.3     1  UNL1       -0.2665
      5 C          62.3116   87.3573    9.2128 C.3     1  UNL1        0.0899
      6 C          62.6708   85.9221    8.9651 C.3     1  UNL1        0.0898
      7 C          63.1132   83.5257    9.8660 C.3     1  UNL1        0.1201
      8 C          64.5156   83.0512   10.1072 C.3     1  UNL1        0.2226
      9 O          64.8470   82.2969   11.3607 O.3     1  UNL1       -0.4739
     10 C          63.2851   86.0664   16.8925 C.3     1  UNL1        0.0521
     11 C          63.4140   85.0755   15.7739 C.ar    1  UNL1        0.0593
     12 C          64.4603   85.2697   14.7167 C.ar    1  UNL1        0.0148
     13 C          64.5892   84.2788   13.5980 C.ar    1  UNL1        0.0057
     14 C          63.6719   83.0936   13.5365 C.ar    1  UNL1        0.0516
     15 C          63.8008   82.1027   12.4178 C.ar    1  UNL1        0.1400
     16 C          62.8835   80.9175   12.3563 C.ar    1  UNL1        0.0370
     17 C          61.8372   80.7232   13.4135 C.ar    1  UNL1        0.0047
     18 C          61.7083   81.7141   14.5322 C.ar    1  UNL1        0.0193
     19 C          62.6257   82.8993   14.5937 C.ar    1  UNL1        0.0838
     20 N          62.4967   83.8903   15.7124 N.ar    1  UNL1       -0.2496
     21 C          61.6766   89.2664   10.8565 C.3     1  UNL1        0.0993
     22 C          62.7454   90.2558   11.2155 C.ar    1  UNL1       -0.0047
     23 C          63.3360   91.1390   10.1567 C.ar    1  UNL1        0.0003
     24 C          64.4047   92.1284   10.5156 C.ar    1  UNL1        0.0379
     25 C          64.8829   92.2345   11.9334 C.ar    1  UNL1        0.1528
     26 C          64.2923   91.3513   12.9922 C.ar    1  UNL1        0.0879
     27 C          63.2236   90.3619   12.6332 C.ar    1  UNL1        0.0151
     28 N          64.7705   91.4574   14.4100 N.am    1  UNL1       -0.2512
     29 C          64.1800   90.5742   15.4688 C.3     1  UNL1        0.1202
     30 C          65.8393   92.4468   14.7689 C.2     1  UNL1        0.2740
     31 O          66.3175   92.5529   16.1867 O.2     1  UNL1       -0.2705
     32 C          66.4299   93.3301   13.7101 C.3     1  UNL1        0.2900
     33 O          65.9517   93.2239   12.2923 O.3     1  UNL1       -0.4643
@<TRIPOS>BOND
     1    10    11    1
     2    11    12   ar
     3    12    13   ar
     4    13    14   ar
     5    14    15   ar
     6    15     9    1
     7     9     8    1
     8     8     7    1
     9     7     1    1
    10     1     2    1
    11     2     3    1
    12     3     4    1
    13     4    21    1
    14    21    22    1
    15    22    23   ar
    16    23    24   ar
    17    24    25   ar
    18    25    26   ar
    19    26    27   ar
    20    26    28    1
    21    28    29    1
    22    28    30   am
    23    30    31    2
    24    30    32    1
    25    32    33    1
    26     4     5    1
    27     5     6    1
    28    15    16   ar
    29    16    17   ar
    30    17    18   ar
    31    18    19   ar
    32    19    20   ar
    33    20    11   ar
    34    19    14   ar
    35     6     1    1
    36    27    22   ar
    37    33    25    1
@<TRIPOS>MOLECULE
*****
 33 37 0 0 0
SMALL
GASTEIGER

@<TRIPOS>ATOM
      1 N          63.8198   84.9085   15.6404 N.3     1  UNL1       -0.2672
      2 C          64.5425   85.6632   14.5642 C.3     1  UNL1        0.0898
      3 C          64.4969   87.1623   14.5395 C.3     1  UNL1        0.0899
      4 N          63.7285   87.9067   15.5910 N.3     1  UNL1       -0.2665
      5 C          63.0059   87.1520   16.6671 C.3     1  UNL1        0.0899
      6 C          63.0515   85.6529   16.6918 C.3     1  UNL1        0.0898
      7 C          63.8655   83.4094   15.6651 C.3     1  UNL1        0.1201
      8 C          63.2874   82.6226   14.5263 C.3     1  UNL1        0.2226
      9 O          62.3881   83.2940   13.5310 O.3     1  UNL1       -0.4739
     10 C          61.2239   88.4453    9.1313 C.3     1  UNL1        0.0521
     11 C          61.6318   87.2105    9.8788 C.ar    1  UNL1        0.0593
     12 C          61.1646   86.9985   11.2883 C.ar    1  UNL1        0.0148
     13 C          61.5724   85.7636   12.0359 C.ar    1  UNL1        0.0057
     14 C          62.4474   84.7408   11.3740 C.ar    1  UNL1        0.0516
     15 C          62.8553   83.5060   12.1215 C.ar    1  UNL1        0.1400
     16 C          63.7302   82.4832   11.4596 C.ar    1  UNL1        0.0370
     17 C          64.1975   82.6952   10.0500 C.ar    1  UNL1        0.0047
     18 C          63.7896   83.9300    9.3024 C.ar    1  UNL1        0.0193
     19 C          62.9146   84.9529    9.9645 C.ar    1  UNL1        0.0838
     20 N          62.5068   86.1877    9.2169 N.ar    1  UNL1       -0.2496
     21 C          63.6828   89.4058   15.5663 C.3     1  UNL1        0.0993
     22 C          63.8546   90.1401   14.2696 C.ar    1  UNL1       -0.0047
     23 C          63.0764   89.7169   13.0592 C.ar    1  UNL1        0.0003
     24 C          63.2482   90.4512   11.7626 C.ar    1  UNL1        0.0379
     25 C          64.1982   91.6087   11.6764 C.ar    1  UNL1        0.1528
     26 C          64.9765   92.0320   12.8868 C.ar    1  UNL1        0.0879
     27 C          64.8047   91.2977   14.1834 C.ar    1  UNL1        0.0151
     28 N          65.9265   93.1896   12.8006 N.am    1  UNL1       -0.2512
     29 C          66.7048   93.6128   14.0110 C.3     1  UNL1        0.1202
     30 C          66.0983   93.9239   11.5040 C.2     1  UNL1        0.2740
     31 O          67.0484   95.0814   11.4178 O.2     1  UNL1       -0.2705
     32 C          65.3200   93.5006   10.2935 C.3     1  UNL1        0.2900
     33 O          64.3700   92.3431   10.3797 O.3     1  UNL1       -0.4643
@<TRIPOS>BOND
     1    10    11    1
     2    11    12   ar
     3    12    13   ar
     4    13    14   ar
     5    14    15   ar
     6    15     9    1
     7     9     8    1
     8     8     7    1
     9     7     1    1
    10     1     2    1
    11     2     3    1
    12     3     4    1
    13     4    21    1
    14    21    22    1
    15    22    23   ar
    16    23    24   ar
    17    24    25   ar
    18    25    26   ar
    19    26    27   ar
    20    26    28    1
    21    28    29    1
    22    28    30   am
    23    30    31    2
    24    30    32    1
    25    32    33    1
    26     4     5    1
    27     5     6    1
    28    15    16   ar
    29    16    17   ar
    30    17    18   ar
    31    18    19   ar
    32    19    20   ar
    33    20    11   ar
    34    19    14   ar
    35     6     1    1
    36    27    22   ar
    37    33    25    1
@<TRIPOS>MOLECULE
*****
 33 37 0 0 0
SMALL
GASTEIGER

@<TRIPOS>ATOM
      1 N          63.8507   85.5583   15.6220 N.3     1  UNL1       -0.2672
      2 C          63.0970   86.0576   16.8189 C.3     1  UNL1        0.0898
      3 C          62.9099   87.5314   17.0262 C.3     1  UNL1        0.0899
      4 N          63.4766   88.5059   16.0365 N.3     1  UNL1       -0.2665
      5 C          64.2303   88.0065   14.8396 C.3     1  UNL1        0.0899
      6 C          64.4173   86.5327   14.6324 C.3     1  UNL1        0.0898
      7 C          64.0378   84.0845   15.4147 C.3     1  UNL1        0.1201
      8 C          63.4807   83.4228   14.1892 C.3     1  UNL1        0.2226
      9 O          62.5412   84.1737   13.2929 O.3     1  UNL1       -0.4739
     10 C          60.2972   88.6606    8.5937 C.3     1  UNL1        0.0521
     11 C          60.9317   87.5678    9.4019 C.ar    1  UNL1        0.0593
     12 C          60.6378   87.4522   10.8683 C.ar    1  UNL1        0.0148
     13 C          61.2722   86.3593   11.6765 C.ar    1  UNL1        0.0057
     14 C          62.2006   85.3822   11.0183 C.ar    1  UNL1        0.0516
     15 C          62.8351   84.2893   11.8265 C.ar    1  UNL1        0.1400
     16 C          63.7635   83.3122   11.1684 C.ar    1  UNL1        0.0370
     17 C          64.0575   83.4278    9.7020 C.ar    1  UNL1        0.0047
     18 C          63.4230   84.5206    8.8938 C.ar    1  UNL1        0.0193
     19 C          62.4946   85.4978    9.5520 C.ar    1  UNL1        0.0838
     20 N          61.8601   86.5907    8.7438 N.ar    1  UNL1       -0.2496
     21 C          63.2895   89.9796   16.2437 C.3     1  UNL1        0.0993
     22 C          64.1894   90.9555   15.5450 C.ar    1  UNL1       -0.0047
     23 C          65.1567   91.7837   16.3375 C.ar    1  UNL1        0.0003
     24 C          66.0565   92.7595   15.6388 C.ar    1  UNL1        0.0379
     25 C          65.9890   92.9069   14.1476 C.ar    1  UNL1        0.1528
     26 C          65.0216   92.0787   13.3551 C.ar    1  UNL1        0.0879
     27 C          64.1218   91.1029   14.0538 C.ar    1  UNL1        0.0151
     28 N          64.9540   92.2261   11.8639 N.am    1  UNL1       -0.2512
     29 C          63.9866   91.3978   11.0714 C.3     1  UNL1        0.1202
     30 C          65.8538   93.2018   11.1652 C.2     1  UNL1        0.2740
     31 O          65.7862   93.3493    9.6740 O.2     1  UNL1       -0.2705
     32 C          66.8212   94.0302   11.9577 C.3     1  UNL1        0.2900
     33 O          66.8888   93.8828   13.4489 O.3     1  UNL1       -0.4643
@<TRIPOS>BOND
     1    10    11    1
     2    11    12   ar
     3    12    13   ar
     4    13    14   ar
     5    14    15   ar
     6    15     9    1
     7     9     8    1
     8     8     7    1
     9     7     1    1
    10     1     2    1
    11     2     3    1
    12     3     4    1
    13     4    21    1
    14    21    22    1
    15    22    23   ar
    16    23    24   ar
    17    24    25   ar
    18    25    26   ar
    19    26    27   ar
    20    26    28    1
    21    28    29    1
    22    28    30   am
    23    30    31    2
    24    30    32    1
    25    32    33    1
    26     4     5    1
    27     5     6    1
    28    15    16   ar
    29    16    17   ar
    30    17    18   ar
    31    18    19   ar
    32    19    20   ar
    33    20    11   ar
    34    19    14   ar
    35     6     1    1
    36    27    22   ar
    37    33    25    1
@<TRIPOS>MOLECULE
*****
 33 37 0 0 0
SMALL
GASTEIGER

@<TRIPOS>ATOM
      1 N          62.7824   84.8656   10.1749 N.3     1  UNL1       -0.2672
      2 C          62.7843   85.8926    9.0815 C.3     1  UNL1        0.0898
      3 C          62.4636   87.3237    9.3961 C.3     1  UNL1        0.0899
      4 N          62.1410   87.7279   10.8042 N.3     1  UNL1       -0.2665
      5 C          62.1391   86.7010   11.8975 C.3     1  UNL1        0.0899
      6 C          62.4598   85.2699   11.5829 C.3     1  UNL1        0.0898
      7 C          63.1031   83.4345    9.8602 C.3     1  UNL1        0.1201
      8 C          64.4918   82.9115   10.0792 C.3     1  UNL1        0.2226
      9 O          64.8228   82.1662   11.3381 O.3     1  UNL1       -0.4739
     10 C          63.3617   86.0338   16.8297 C.3     1  UNL1        0.0521
     11 C          63.4671   85.0256   15.7240 C.ar    1  UNL1        0.0593
     12 C          64.5063   85.1907   14.6551 C.ar    1  UNL1        0.0148
     13 C          64.6118   84.1826   13.5494 C.ar    1  UNL1        0.0057
     14 C          63.6781   83.0092   13.5127 C.ar    1  UNL1        0.0516
     15 C          63.7836   82.0010   12.4071 C.ar    1  UNL1        0.1400
     16 C          62.8499   80.8277   12.3704 C.ar    1  UNL1        0.0370
     17 C          61.8106   80.6625   13.4394 C.ar    1  UNL1        0.0047
     18 C          61.7051   81.6707   14.5451 C.ar    1  UNL1        0.0193
     19 C          62.6389   82.8441   14.5817 C.ar    1  UNL1        0.0838
     20 N          62.5334   83.8522   15.6874 N.ar    1  UNL1       -0.2496
     21 C          61.8203   89.1590   11.1189 C.3     1  UNL1        0.0993
     22 C          62.7608   89.9711   11.9592 C.ar    1  UNL1       -0.0047
     23 C          62.8967   89.6825   13.4248 C.ar    1  UNL1        0.0003
     24 C          63.8372   90.4945   14.2651 C.ar    1  UNL1        0.0379
     25 C          64.6417   91.5952   13.6397 C.ar    1  UNL1        0.1528
     26 C          64.5058   91.8839   12.1740 C.ar    1  UNL1        0.0879
     27 C          63.5654   91.0718   11.3338 C.ar    1  UNL1        0.0151
     28 N          65.3104   92.9846   11.5486 N.am    1  UNL1       -0.2512
     29 C          65.1745   93.2732   10.0830 C.3     1  UNL1        0.1202
     30 C          66.2509   93.7967   12.3889 C.2     1  UNL1        0.2740
     31 O          67.0554   94.8974   11.7634 O.2     1  UNL1       -0.2705
     32 C          66.3868   93.5080   13.8546 C.3     1  UNL1        0.2900
     33 O          65.5822   92.4073   14.4800 O.3     1  UNL1       -0.4643
@<TRIPOS>BOND
     1    10    11    1
     2    11    12   ar
     3    12    13   ar
     4    13    14   ar
     5    14    15   ar
     6    15     9    1
     7     9     8    1
     8     8     7    1
     9     7     1    1
    10     1     2    1
    11     2     3    1
    12     3     4    1
    13     4    21    1
    14    21    22    1
    15    22    23   ar
    16    23    24   ar
    17    24    25   ar
    18    25    26   ar
    19    26    27   ar
    20    26    28    1
    21    28    29    1
    22    28    30   am
    23    30    31    2
    24    30    32    1
    25    32    33    1
    26     4     5    1
    27     5     6    1
    28    15    16   ar
    29    16    17   ar
    30    17    18   ar
    31    18    19   ar
    32    19    20   ar
    33    20    11   ar
    34    19    14   ar
    35     6     1    1
    36    27    22   ar
    37    33    25    1
@<TRIPOS>MOLECULE
*****
 33 37 0 0 0
SMALL
GASTEIGER

@<TRIPOS>ATOM
      1 N          63.4674   88.0401   16.3257 N.3     1  UNL1       -0.2672
      2 C          64.1271   88.0464   14.9785 C.3     1  UNL1        0.0898
      3 C          64.2483   86.7719   14.1968 C.3     1  UNL1        0.0899
      4 N          63.7098   85.4911   14.7624 N.3     1  UNL1       -0.2665
      5 C          63.0502   85.4849   16.1096 C.3     1  UNL1        0.0899
      6 C          62.9290   86.7594   16.8912 C.3     1  UNL1        0.0898
      7 C          63.3463   89.3146   17.1073 C.3     1  UNL1        0.1201
      8 C          63.0395   90.6017   16.4005 C.3     1  UNL1        0.2226
      9 O          63.6427   90.8811   15.0559 O.3     1  UNL1       -0.4739
     10 C          66.8270   93.5431    9.5765 C.3     1  UNL1        0.0521
     11 C          66.3426   93.0846   10.9200 C.ar    1  UNL1        0.0593
     12 C          65.0961   92.2568   11.0254 C.ar    1  UNL1        0.0148
     13 C          64.6116   91.7983   12.3689 C.ar    1  UNL1        0.0057
     14 C          65.3737   92.1674   13.6070 C.ar    1  UNL1        0.0516
     15 C          64.8892   91.7089   14.9505 C.ar    1  UNL1        0.1400
     16 C          65.6512   92.0780   16.1886 C.ar    1  UNL1        0.0370
     17 C          66.8978   92.9058   16.0833 C.ar    1  UNL1        0.0047
     18 C          67.3822   93.3644   14.7398 C.ar    1  UNL1        0.0193
     19 C          66.6201   92.9952   13.5016 C.ar    1  UNL1        0.0838
     20 N          67.1046   93.4537   12.1581 N.ar    1  UNL1       -0.2496
     21 C          63.8310   84.2166   13.9808 C.3     1  UNL1        0.0993
     22 C          63.6281   84.2261   12.4945 C.ar    1  UNL1       -0.0047
     23 C          64.4098   83.2867   11.6249 C.ar    1  UNL1        0.0003
     24 C          64.2069   83.2963   10.1387 C.ar    1  UNL1        0.0379
     25 C          63.2223   84.2452    9.5222 C.ar    1  UNL1        0.1528
     26 C          62.4405   85.1846   10.3919 C.ar    1  UNL1        0.0879
     27 C          62.6435   85.1751   11.8781 C.ar    1  UNL1        0.0151
     28 N          61.4559   86.1336    9.7755 N.am    1  UNL1       -0.2512
     29 C          60.6742   87.0729   10.6451 C.3     1  UNL1        0.1202
     30 C          61.2530   86.1431    8.2893 C.2     1  UNL1        0.2740
     31 O          60.2684   87.0920    7.6728 O.2     1  UNL1       -0.2705
     32 C          62.0348   85.2037    7.4195 C.3     1  UNL1        0.2900
     33 O          63.0194   84.2547    8.0360 O.3     1  UNL1       -0.4643
@<TRIPOS>BOND
     1    10    11    1
     2    11    12   ar
     3    12    13   ar
     4    13    14   ar
     5    14    15   ar
     6    15     9    1
     7     9     8    1
     8     8     7    1
     9     7     1    1
    10     1     2    1
    11     2     3    1
    12     3     4    1
    13     4    21    1
    14    21    22    1
    15    22    23   ar
    16    23    24   ar
    17    24    25   ar
    18    25    26   ar
    19    26    27   ar
    20    26    28    1
    21    28    29    1
    22    28    30   am
    23    30    31    2
    24    30    32    1
    25    32    33    1
    26     4     5    1
    27     5     6    1
    28    15    16   ar
    29    16    17   ar
    30    17    18   ar
    31    18    19   ar
    32    19    20   ar
    33    20    11   ar
    34    19    14   ar
    35     6     1    1
    36    27    22   ar
    37    33    25    1
@<TRIPOS>MOLECULE
*****
 33 37 0 0 0
SMALL
GASTEIGER

@<TRIPOS>ATOM
      1 N          63.4113   87.7045   16.3534 N.3     1  UNL1       -0.2672
      2 C          64.2586   87.6957   15.1156 C.3     1  UNL1        0.0898
      3 C          64.3797   86.4437   14.2985 C.3     1  UNL1        0.0899
      4 N          63.6534   85.2004   14.7191 N.3     1  UNL1       -0.2665
      5 C          62.8062   85.2092   15.9569 C.3     1  UNL1        0.0899
      6 C          62.6851   86.4612   16.7740 C.3     1  UNL1        0.0898
      7 C          63.2902   88.9565   17.1706 C.3     1  UNL1        0.1201
      8 C          63.1151   90.2820   16.4905 C.3     1  UNL1        0.2226
      9 O          64.1302   90.7521   15.4912 O.3     1  UNL1       -0.4739
     10 C          67.0631   94.0849   10.2433 C.3     1  UNL1        0.0521
     11 C          66.2445   93.2583   11.1902 C.ar    1  UNL1        0.0593
     12 C          66.5859   93.2321   12.6505 C.ar    1  UNL1        0.0148
     13 C          65.7673   92.4054   13.5974 C.ar    1  UNL1        0.0057
     14 C          64.6074   91.6050   13.0840 C.ar    1  UNL1        0.0516
     15 C          63.7888   90.7783   14.0309 C.ar    1  UNL1        0.1400
     16 C          62.6288   89.9779   13.5174 C.ar    1  UNL1        0.0370
     17 C          62.2873   90.0041   12.0570 C.ar    1  UNL1        0.0047
     18 C          63.1059   90.8307   11.1101 C.ar    1  UNL1        0.0193
     19 C          64.2659   91.6312   11.6236 C.ar    1  UNL1        0.0838
     20 N          65.0845   92.4578   10.6767 N.ar    1  UNL1       -0.2496
     21 C          63.7745   83.9484   13.9020 C.3     1  UNL1        0.0993
     22 C          63.5952   84.0038   12.4137 C.ar    1  UNL1       -0.0047
     23 C          64.3800   83.0813   11.5288 C.ar    1  UNL1        0.0003
     24 C          64.2006   83.1368   10.0407 C.ar    1  UNL1        0.0379
     25 C          63.2365   84.1148    9.4373 C.ar    1  UNL1        0.1528
     26 C          62.4518   85.0373   10.3222 C.ar    1  UNL1        0.0879
     27 C          62.6311   84.9818   11.8104 C.ar    1  UNL1        0.0151
     28 N          61.4877   86.0154    9.7189 N.am    1  UNL1       -0.2512
     29 C          60.7029   86.9379   10.6038 C.3     1  UNL1        0.1202
     30 C          61.3084   86.0708    8.2307 C.2     1  UNL1        0.2740
     31 O          60.3443   87.0489    7.6274 O.2     1  UNL1       -0.2705
     32 C          62.0931   85.1483    7.3458 C.3     1  UNL1        0.2900
     33 O          63.0572   84.1702    7.9491 O.3     1  UNL1       -0.4643
@<TRIPOS>BOND
     1    10    11    1
     2    11    12   ar
     3    12    13   ar
     4    13    14   ar
     5    14    15   ar
     6    15     9    1
     7     9     8    1
     8     8     7    1
     9     7     1    1
    10     1     2    1
    11     2     3    1
    12     3     4    1
    13     4    21    1
    14    21    22    1
    15    22    23   ar
    16    23    24   ar
    17    24    25   ar
    18    25    26   ar
    19    26    27   ar
    20    26    28    1
    21    28    29    1
    22    28    30   am
    23    30    31    2
    24    30    32    1
    25    32    33    1
    26     4     5    1
    27     5     6    1
    28    15    16   ar
    29    16    17   ar
    30    17    18   ar
    31    18    19   ar
    32    19    20   ar
    33    20    11   ar
    34    19    14   ar
    35     6     1    1
    36    27    22   ar
    37    33    25    1
@<TRIPOS>MOLECULE
*****
 33 37 0 0 0
SMALL
GASTEIGER

@<TRIPOS>ATOM
      1 N          62.9925   89.9246   11.8811 N.3     1  UNL1       -0.2672
      2 C          63.7076   90.2990   13.1454 C.3     1  UNL1        0.0898
      3 C          64.1846   89.2290   14.0822 C.3     1  UNL1        0.0899
      4 N          63.9465   87.7846   13.7547 N.3     1  UNL1       -0.2665
      5 C          63.2314   87.4103   12.4904 C.3     1  UNL1        0.0899
      6 C          62.7544   88.4803   11.5536 C.3     1  UNL1        0.0898
      7 C          62.5154   90.9946   10.9443 C.3     1  UNL1        0.1201
      8 C          63.5050   91.7746   10.1304 C.3     1  UNL1        0.2226
      9 O          64.4008   92.7762   10.7972 O.3     1  UNL1       -0.4739
     10 C          68.4831   92.3091   16.3078 C.3     1  UNL1        0.0521
     11 C          67.8304   92.3590   14.9581 C.ar    1  UNL1        0.0593
     12 C          66.3588   92.6265   14.8461 C.ar    1  UNL1        0.0148
     13 C          65.7061   92.6764   13.4965 C.ar    1  UNL1        0.0057
     14 C          66.5251   92.4587   12.2588 C.ar    1  UNL1        0.0516
     15 C          65.8725   92.5086   10.9092 C.ar    1  UNL1        0.1400
     16 C          66.6915   92.2910    9.6715 C.ar    1  UNL1        0.0370
     17 C          68.1632   92.0234    9.7835 C.ar    1  UNL1        0.0047
     18 C          68.8159   91.9735   11.1331 C.ar    1  UNL1        0.0193
     19 C          67.9968   92.1912   12.3708 C.ar    1  UNL1        0.0838
     20 N          68.6494   92.1413   13.7205 N.ar    1  UNL1       -0.2496
     21 C          64.4235   86.7146   14.6914 C.3     1  UNL1        0.0993
     22 C          63.8095   85.3469   14.6428 C.ar    1  UNL1       -0.0047
     23 C          63.0480   84.8242   15.8247 C.ar    1  UNL1        0.0003
     24 C          62.4340   83.4566   15.7761 C.ar    1  UNL1        0.0379
     25 C          62.5814   82.6116   14.5455 C.ar    1  UNL1        0.1528
     26 C          63.3429   83.1342   13.3636 C.ar    1  UNL1        0.0879
     27 C          63.9569   84.5019   13.4123 C.ar    1  UNL1        0.0151
     28 N          63.4903   82.2892   12.1331 N.am    1  UNL1       -0.2512
     29 C          64.2518   82.8119   10.9512 C.3     1  UNL1        0.1202
     30 C          62.8763   80.9216   12.0844 C.2     1  UNL1        0.2740
     31 O          63.0237   80.0766   10.8539 O.2     1  UNL1       -0.2705
     32 C          62.1147   80.3988   13.2664 C.3     1  UNL1        0.2900
     33 O          61.9673   81.2438   14.4969 O.3     1  UNL1       -0.4643
@<TRIPOS>BOND
     1    10    11    1
     2    11    12   ar
     3    12    13   ar
     4    13    14   ar
     5    14    15   ar
     6    15     9    1
     7     9     8    1
     8     8     7    1
     9     7     1    1
    10     1     2    1
    11     2     3    1
    12     3     4    1
    13     4    21    1
    14    21    22    1
    15    22    23   ar
    16    23    24   ar
    17    24    25   ar
    18    25    26   ar
    19    26    27   ar
    20    26    28    1
    21    28    29    1
    22    28    30   am
    23    30    31    2
    24    30    32    1
    25    32    33    1
    26     4     5    1
    27     5     6    1
    28    15    16   ar
    29    16    17   ar
    30    17    18   ar
    31    18    19   ar
    32    19    20   ar
    33    20    11   ar
    34    19    14   ar
    35     6     1    1
    36    27    22   ar
    37    33    25    1
@<TRIPOS>MOLECULE
*****
 33 37 0 0 0
SMALL
GASTEIGER

@<TRIPOS>ATOM
      1 N          62.7703   85.1027   10.2325 N.3     1  UNL1       -0.2672
      2 C          62.5308   85.9941    9.0500 C.3     1  UNL1        0.0898
      3 C          62.1984   87.4420    9.2575 C.3     1  UNL1        0.0899
      4 N          62.1054   87.9985   10.6474 N.3     1  UNL1       -0.2665
      5 C          62.3449   87.1071   11.8297 C.3     1  UNL1        0.0899
      6 C          62.6774   85.6592   11.6223 C.3     1  UNL1        0.0898
      7 C          63.1028   83.6548   10.0250 C.3     1  UNL1        0.1201
      8 C          64.5262   83.1911   10.1199 C.3     1  UNL1        0.2226
      9 O          65.0491   82.6341   11.4109 O.3     1  UNL1       -0.4739
     10 C          59.5424   79.8998   14.4850 C.3     1  UNL1        0.0521
     11 C          60.7503   80.6698   14.0400 C.ar    1  UNL1        0.0593
     12 C          61.4254   80.3240   12.7459 C.ar    1  UNL1        0.0148
     13 C          62.6333   81.0941   12.3009 C.ar    1  UNL1        0.0057
     14 C          63.1661   82.2099   13.1499 C.ar    1  UNL1        0.0516
     15 C          64.3740   82.9799   12.7049 C.ar    1  UNL1        0.1400
     16 C          64.9069   84.0958   13.5540 C.ar    1  UNL1        0.0370
     17 C          64.2318   84.4416   14.8482 C.ar    1  UNL1        0.0047
     18 C          63.0239   83.6716   15.2932 C.ar    1  UNL1        0.0193
     19 C          62.4911   82.5557   14.4440 C.ar    1  UNL1        0.0838
     20 N          61.2832   81.7856   14.8890 N.ar    1  UNL1       -0.2496
     21 C          61.7729   89.4464   10.8548 C.3     1  UNL1        0.0993
     22 C          62.8517   90.4166   11.2358 C.ar    1  UNL1       -0.0047
     23 C          63.4689   91.2997   10.1922 C.ar    1  UNL1        0.0003
     24 C          64.5476   92.2698   10.5731 C.ar    1  UNL1        0.0379
     25 C          65.0093   92.3567   11.9977 C.ar    1  UNL1        0.1528
     26 C          64.3922   91.4735   13.0413 C.ar    1  UNL1        0.0879
     27 C          63.3134   90.5035   12.6603 C.ar    1  UNL1        0.0151
     28 N          64.8538   91.5604   14.4658 N.am    1  UNL1       -0.2512
     29 C          64.2367   90.6773   15.5094 C.3     1  UNL1        0.1202
     30 C          65.9326   92.5305   14.8467 C.2     1  UNL1        0.2740
     31 O          66.3943   92.6174   16.2713 O.2     1  UNL1       -0.2705
     32 C          66.5498   93.4137   13.8031 C.3     1  UNL1        0.2900
     33 O          66.0881   93.3268   12.3786 O.3     1  UNL1       -0.4643
@<TRIPOS>BOND
     1    10    11    1
     2    11    12   ar
     3    12    13   ar
     4    13    14   ar
     5    14    15   ar
     6    15     9    1
     7     9     8    1
     8     8     7    1
     9     7     1    1
    10     1     2    1
    11     2     3    1
    12     3     4    1
    13     4    21    1
    14    21    22    1
    15    22    23   ar
    16    23    24   ar
    17    24    25   ar
    18    25    26   ar
    19    26    27   ar
    20    26    28    1
    21    28    29    1
    22    28    30   am
    23    30    31    2
    24    30    32    1
    25    32    33    1
    26     4     5    1
    27     5     6    1
    28    15    16   ar
    29    16    17   ar
    30    17    18   ar
    31    18    19   ar
    32    19    20   ar
    33    20    11   ar
    34    19    14   ar
    35     6     1    1
    36    27    22   ar
    37    33    25    1
@<TRIPOS>MOLECULE
*****
 33 37 0 0 0
SMALL
GASTEIGER

@<TRIPOS>ATOM
      1 N          61.7587   88.7512   10.5604 N.3     1  UNL1       -0.2672
      2 C          61.0421   90.0095   10.1690 C.3     1  UNL1        0.0898
      3 C          60.1928   90.0354    8.9328 C.3     1  UNL1        0.0899
      4 N          60.0601   88.8029    8.0881 N.3     1  UNL1       -0.2665
      5 C          60.7768   87.5447    8.4795 C.3     1  UNL1        0.0899
      6 C          61.6260   87.5188    9.7156 C.3     1  UNL1        0.0898
      7 C          62.6080   88.7253   11.7965 C.3     1  UNL1        0.1201
      8 C          62.3873   89.7395   12.8795 C.3     1  UNL1        0.2226
      9 O          63.5596   90.3211   13.6125 O.3     1  UNL1       -0.4739
     10 C          68.8245   94.0309   16.0143 C.3     1  UNL1        0.0521
     11 C          67.7317   93.3517   15.2433 C.ar    1  UNL1        0.0593
     12 C          66.8382   92.3586   15.9254 C.ar    1  UNL1        0.0148
     13 C          65.7453   91.6794   15.1545 C.ar    1  UNL1        0.0057
     14 C          65.5460   91.9934   13.7013 C.ar    1  UNL1        0.0516
     15 C          64.4531   91.3142   12.9303 C.ar    1  UNL1        0.1400
     16 C          64.2538   91.6281   11.4772 C.ar    1  UNL1        0.0370
     17 C          65.1473   92.6213   10.7950 C.ar    1  UNL1        0.0047
     18 C          66.2401   93.3005   11.5660 C.ar    1  UNL1        0.0193
     19 C          66.4395   92.9865   13.0192 C.ar    1  UNL1        0.0838
     20 N          67.5323   93.6656   13.7902 N.ar    1  UNL1       -0.2496
     21 C          59.2109   88.8288    6.8519 C.3     1  UNL1        0.0993
     22 C          59.2932   89.9931    5.9097 C.ar    1  UNL1       -0.0047
     23 C          58.1037   90.8859    5.7150 C.ar    1  UNL1        0.0003
     24 C          58.1860   92.0501    4.7728 C.ar    1  UNL1        0.0379
     25 C          59.4578   92.3215    4.0253 C.ar    1  UNL1        0.1528
     26 C          60.6473   91.4287    4.2200 C.ar    1  UNL1        0.0879
     27 C          60.5650   90.2645    5.1622 C.ar    1  UNL1        0.0151
     28 N          61.9192   91.7001    3.4725 N.am    1  UNL1       -0.2512
     29 C          63.1087   90.8074    3.6672 C.3     1  UNL1        0.1202
     30 C          62.0015   92.8644    2.5303 C.2     1  UNL1        0.2740
     31 O          63.2734   93.1358    1.7828 O.2     1  UNL1       -0.2705
     32 C          60.8120   93.7572    2.3355 C.3     1  UNL1        0.2900
     33 O          59.5401   93.4858    3.0830 O.3     1  UNL1       -0.4643
@<TRIPOS>BOND
     1    10    11    1
     2    11    12   ar
     3    12    13   ar
     4    13    14   ar
     5    14    15   ar
     6    15     9    1
     7     9     8    1
     8     8     7    1
     9     7     1    1
    10     1     2    1
    11     2     3    1
    12     3     4    1
    13     4    21    1
    14    21    22    1
    15    22    23   ar
    16    23    24   ar
    17    24    25   ar
    18    25    26   ar
    19    26    27   ar
    20    26    28    1
    21    28    29    1
    22    28    30   am
    23    30    31    2
    24    30    32    1
    25    32    33    1
    26     4     5    1
    27     5     6    1
    28    15    16   ar
    29    16    17   ar
    30    17    18   ar
    31    18    19   ar
    32    19    20   ar
    33    20    11   ar
    34    19    14   ar
    35     6     1    1
    36    27    22   ar
    37    33    25    1
