@<TRIPOS>MOLECULE
*****
 33 35 0 0 0
SMALL
GASTEIGER

@<TRIPOS>ATOM
      1 C          63.7319   86.3569   15.2820 C.ar    1  UNL1        0.0528
      2 C          64.3723   87.5207   14.5853 C.ar    1  UNL1        0.0167
      3 C          64.2430   88.9011   15.1578 C.ar    1  UNL1        0.0505
      4 C          63.4733   89.1177   16.4269 C.ar    1  UNL1        0.0170
      5 C          62.8329   87.9539   17.1236 C.ar    1  UNL1        0.0307
      6 C          62.9622   86.5735   16.5511 C.ar    1  UNL1        0.1402
      7 F          62.3217   85.4096   17.2478 F       1  UNL1       -0.2044
      8 C          64.1180   84.6829   16.1579 C.3     1  UNL1        0.0607
      9 C          63.8611   84.9764   14.7095 C.3     1  UNL1        0.2223
     10 C          63.5593   85.7493   13.4600 C.3     1  UNL1        0.1959
     11 O          63.4759   85.0399   12.1410 O.3     1  UNL1       -0.3357
     12 C          63.6944   83.5575   12.0716 C.3     1  UNL1        0.2740
     13 C          63.8236   82.1771   11.4992 C.3     1  UNL1        0.0512
     14 C          63.9962   82.7846   13.3211 C.2     1  UNL1        0.3217
     15 N          64.2147   81.3022   13.2517 N.pl3   1  UNL1       -0.2480
     16 N          64.0796   83.4940   14.6401 N.2     1  UNL1       -0.0692
     17 H          64.1600   80.8365   12.3860 H       1  UNL1        0.2882
     18 H          64.4128   80.7949   14.0719 H       1  UNL1        0.2882
     19 C          63.4375   83.8510   10.6231 C.3     1  UNL1        0.4305
     20 F          63.1805   84.1445    9.1747 F       1  UNL1       -0.1670
     21 F          64.7616   83.2440   10.2652 F       1  UNL1       -0.1670
     22 F          62.1133   84.4580   10.9811 F       1  UNL1       -0.1670
     23 N          64.8835   90.0650   14.4611 N.am    1  UNL1       -0.2791
     24 C          64.2041   90.7013   13.2849 C.2     1  UNL1        0.2672
     25 O          62.8843   90.1738   12.8053 O.2     1  UNL1       -0.2682
     26 H          65.7497   90.4112   14.7759 H       1  UNL1        0.1552
     27 C          64.8445   91.8652   12.5882 C.ar    1  UNL1        0.1348
     28 C          64.7322   92.0020   11.0987 C.ar    1  UNL1        0.0243
     29 C          65.3726   93.1659   10.4021 C.ar    1  UNL1        0.0100
     30 C          66.1253   94.1929   11.1949 C.ar    1  UNL1        0.0537
     31 BR         66.7657   95.3567   10.4983 Br      1  UNL1       -0.0474
     32 C          66.2376   94.0561   12.6844 C.ar    1  UNL1        0.1056
     33 N          65.5972   92.8923   13.3811 N.ar    1  UNL1       -0.2387
@<TRIPOS>BOND
     1     9     8    1
     2     9     1    1
     3     1     2   ar
     4     2     3   ar
     5     3    23    1
     6    23    24   am
     7    24    25    2
     8    24    27    1
     9    27    28   ar
    10    28    29   ar
    11    29    30   ar
    12    30    31    1
    13    30    32   ar
    14    32    33   ar
    15     3     4   ar
    16     4     5   ar
    17     5     6   ar
    18     6     7    1
    19     9    10    1
    20    10    11    1
    21    11    12    1
    22    12    13    1
    23    12    19    1
    24    19    20    1
    25    19    21    1
    26    19    22    1
    27    12    14    1
    28    14    15    1
    29    14    16    2
    30    16     9    1
    31     6     1   ar
    32    33    27   ar
    33    23    26    1
    34    15    17    1
    35    15    18    1
@<TRIPOS>MOLECULE
*****
 33 35 0 0 0
SMALL
GASTEIGER

@<TRIPOS>ATOM
      1 C          63.9521   89.1479   14.6495 C.ar    1  UNL1        0.0528
      2 C          64.0021   87.7912   14.0118 C.ar    1  UNL1        0.0167
      3 C          63.6403   86.5737   14.8096 C.ar    1  UNL1        0.0505
      4 C          63.2284   86.7129   16.2452 C.ar    1  UNL1        0.0170
      5 C          63.1783   88.0696   16.8830 C.ar    1  UNL1        0.0307
      6 C          63.5402   89.2871   16.0851 C.ar    1  UNL1        0.1402
      7 F          63.4901   90.6439   16.7228 F       1  UNL1       -0.2044
      8 C          63.0096   90.0072   13.2031 C.3     1  UNL1        0.0607
      9 C          64.3139   90.3656   13.8516 C.3     1  UNL1        0.2223
     10 C          65.4924   90.3010   14.7772 C.3     1  UNL1        0.1959
     11 O          66.5798   91.3296   14.6798 O.3     1  UNL1       -0.3357
     12 C          66.4887   92.4228   13.6567 C.3     1  UNL1        0.2740
     13 C          66.8504   93.6404   12.8588 C.3     1  UNL1        0.0512
     14 C          65.3101   92.4873   12.7311 C.2     1  UNL1        0.3217
     15 N          65.2190   93.5805   11.7079 N.pl3   1  UNL1       -0.2480
     16 N          64.2227   91.4587   12.8285 N.2     1  UNL1       -0.0692
     17 H          65.9327   94.2556   11.6440 H       1  UNL1        0.2882
     18 H          64.4454   93.6229   11.1004 H       1  UNL1        0.2882
     19 C          67.7929   92.7811   14.3053 C.3     1  UNL1        0.4305
     20 F          69.0972   93.1395   14.9538 F       1  UNL1       -0.1670
     21 F          67.1168   93.8939   15.0501 F       1  UNL1       -0.1670
     22 F          68.4689   91.6684   13.5605 F       1  UNL1       -0.1670
     23 N          63.6904   85.2169   14.1719 N.am    1  UNL1       -0.2791
     24 C          62.8988   84.9434   12.9274 C.2     1  UNL1        0.2672
     25 O          62.0572   86.0268   12.3207 O.2     1  UNL1       -0.2682
     26 H          64.2428   84.5059   14.5701 H       1  UNL1        0.1552
     27 C          62.9489   83.5867   12.2897 C.ar    1  UNL1        0.1348
     28 C          63.5574   83.4196   10.9289 C.ar    1  UNL1        0.0243
     29 C          63.6074   82.0628   10.2912 C.ar    1  UNL1        0.0100
     30 C          63.0489   80.8732   11.0142 C.ar    1  UNL1        0.0537
     31 BR         63.0989   79.5165   10.3765 Br      1  UNL1       -0.0474
     32 C          62.4404   81.0403   12.3750 C.ar    1  UNL1        0.1056
     33 N          62.3904   82.3970   13.0128 N.ar    1  UNL1       -0.2387
@<TRIPOS>BOND
     1     9     8    1
     2     9     1    1
     3     1     2   ar
     4     2     3   ar
     5     3    23    1
     6    23    24   am
     7    24    25    2
     8    24    27    1
     9    27    28   ar
    10    28    29   ar
    11    29    30   ar
    12    30    31    1
    13    30    32   ar
    14    32    33   ar
    15     3     4   ar
    16     4     5   ar
    17     5     6   ar
    18     6     7    1
    19     9    10    1
    20    10    11    1
    21    11    12    1
    22    12    13    1
    23    12    19    1
    24    19    20    1
    25    19    21    1
    26    19    22    1
    27    12    14    1
    28    14    15    1
    29    14    16    2
    30    16     9    1
    31     6     1   ar
    32    33    27   ar
    33    23    26    1
    34    15    17    1
    35    15    18    1
@<TRIPOS>MOLECULE
*****
 33 35 0 0 0
SMALL
GASTEIGER

@<TRIPOS>ATOM
      1 C          62.0775   87.4337   11.0368 C.ar    1  UNL1        0.0528
      2 C          63.1042   88.3564   11.6238 C.ar    1  UNL1        0.0167
      3 C          62.7844   89.8093   11.8155 C.ar    1  UNL1        0.0505
      4 C          61.4381   90.3395   11.4202 C.ar    1  UNL1        0.0170
      5 C          60.4115   89.4168   10.8332 C.ar    1  UNL1        0.0307
      6 C          60.7312   87.9639   10.6415 C.ar    1  UNL1        0.1402
      7 F          59.7046   87.0411   10.0544 F       1  UNL1       -0.2044
      8 C          62.4098   86.4408    9.4174 C.3     1  UNL1        0.0607
      9 C          62.3973   85.9807   10.8450 C.3     1  UNL1        0.2223
     10 C          62.2736   86.0252   12.3392 C.3     1  UNL1        0.1959
     11 O          62.4741   84.7766   13.1459 O.3     1  UNL1       -0.3357
     12 C          62.7982   83.4834   12.4583 C.3     1  UNL1        0.2740
     13 C          63.1179   82.0305   12.2665 C.3     1  UNL1        0.0512
     14 C          62.9218   83.4389   10.9641 C.2     1  UNL1        0.3217
     15 N          63.2458   82.1457   10.2765 N.pl3   1  UNL1       -0.2480
     16 N          62.7213   84.6875   10.1574 N.2     1  UNL1       -0.0692
     17 H          63.3774   81.3262   10.8060 H       1  UNL1        0.2882
     18 H          63.3270   82.1165    9.2958 H       1  UNL1        0.2882
     19 C          62.7856   83.0233   13.8860 C.3     1  UNL1        0.4305
     20 F          62.7730   82.5632   15.3137 F       1  UNL1       -0.1670
     21 F          61.6886   82.0524   13.5634 F       1  UNL1       -0.1670
     22 F          63.8825   83.9942   14.2085 F       1  UNL1       -0.1670
     23 N          63.8111   90.7321   12.4026 N.am    1  UNL1       -0.2791
     24 C          64.5051   90.3659   13.6809 C.2     1  UNL1        0.2672
     25 O          64.1724   89.0768   14.3722 O.2     1  UNL1       -0.2682
     26 H          64.0293   91.5781   11.9488 H       1  UNL1        0.1552
     27 C          65.5317   91.2886   14.2680 C.ar    1  UNL1        0.1348
     28 C          66.7864   91.5967   13.5059 C.ar    1  UNL1        0.0243
     29 C          67.8130   92.5194   14.0930 C.ar    1  UNL1        0.0100
     30 C          67.5849   93.1341   15.4421 C.ar    1  UNL1        0.0537
     31 BR         68.6114   94.0568   16.0292 Br      1  UNL1       -0.0474
     32 C          66.3301   92.8260   16.2042 C.ar    1  UNL1        0.1056
     33 N          65.3035   91.9032   15.6172 N.ar    1  UNL1       -0.2387
@<TRIPOS>BOND
     1     9     8    1
     2     9     1    1
     3     1     2   ar
     4     2     3   ar
     5     3    23    1
     6    23    24   am
     7    24    25    2
     8    24    27    1
     9    27    28   ar
    10    28    29   ar
    11    29    30   ar
    12    30    31    1
    13    30    32   ar
    14    32    33   ar
    15     3     4   ar
    16     4     5   ar
    17     5     6   ar
    18     6     7    1
    19     9    10    1
    20    10    11    1
    21    11    12    1
    22    12    13    1
    23    12    19    1
    24    19    20    1
    25    19    21    1
    26    19    22    1
    27    12    14    1
    28    14    15    1
    29    14    16    2
    30    16     9    1
    31     6     1   ar
    32    33    27   ar
    33    23    26    1
    34    15    17    1
    35    15    18    1
@<TRIPOS>MOLECULE
*****
 33 35 0 0 0
SMALL
GASTEIGER

@<TRIPOS>ATOM
      1 C          63.0727   89.9003   11.6609 C.ar    1  UNL1        0.0528
      2 C          62.9833   88.4263   11.9242 C.ar    1  UNL1        0.0167
      3 C          62.1770   87.5492   11.0130 C.ar    1  UNL1        0.0505
      4 C          61.4601   88.1461    9.8383 C.ar    1  UNL1        0.0170
      5 C          61.5494   89.6200    9.5750 C.ar    1  UNL1        0.0307
      6 C          62.3558   90.4971   10.4863 C.ar    1  UNL1        0.1402
      7 F          62.4452   91.9712   10.2230 F       1  UNL1       -0.2044
      8 C          63.1640   89.9352   13.5868 C.3     1  UNL1        0.0607
      9 C          63.8790   90.7775   12.5722 C.3     1  UNL1        0.2223
     10 C          64.3140   91.3150   11.2412 C.3     1  UNL1        0.1959
     11 O          65.3070   92.4373   11.1738 O.3     1  UNL1       -0.3357
     12 C          65.8650   93.0219   12.4375 C.3     1  UNL1        0.2740
     13 C          66.6713   93.8991   13.3488 C.3     1  UNL1        0.0512
     14 C          65.4300   92.4844   13.7685 C.2     1  UNL1        0.3217
     15 N          65.9880   93.0690   15.0322 N.pl3   1  UNL1       -0.2480
     16 N          64.4370   91.3621   13.8359 N.2     1  UNL1       -0.0692
     17 H          66.6397   93.8056   14.9880 H       1  UNL1        0.2882
     18 H          65.7025   92.7162   15.9058 H       1  UNL1        0.2882
     19 C          66.5800   93.8642   11.4229 C.3     1  UNL1        0.4305
     20 F          67.2951   94.7065   10.4083 F       1  UNL1       -0.1670
     21 F          65.9261   95.0930   11.9820 F       1  UNL1       -0.1670
     22 F          67.2339   92.6355   10.8638 F       1  UNL1       -0.1670
     23 N          62.0876   86.0751   11.2763 N.am    1  UNL1       -0.2791
     24 C          62.7853   85.4818   12.4642 C.2     1  UNL1        0.2672
     25 O          63.5724   86.3626   13.3889 O.2     1  UNL1       -0.2682
     26 H          61.5711   85.4971   10.6694 H       1  UNL1        0.1552
     27 C          62.6959   84.0079   12.7276 C.ar    1  UNL1        0.1348
     28 C          62.9518   83.0310   11.6184 C.ar    1  UNL1        0.0243
     29 C          62.8624   81.5569   11.8818 C.ar    1  UNL1        0.0100
     30 C          62.5172   81.0599   13.2543 C.ar    1  UNL1        0.0537
     31 BR         62.4278   79.5859   13.5176 Br      1  UNL1       -0.0474
     32 C          62.2613   82.0368   14.3634 C.ar    1  UNL1        0.1056
     33 N          62.3507   83.5107   14.1001 N.ar    1  UNL1       -0.2387
@<TRIPOS>BOND
     1     9     8    1
     2     9     1    1
     3     1     2   ar
     4     2     3   ar
     5     3    23    1
     6    23    24   am
     7    24    25    2
     8    24    27    1
     9    27    28   ar
    10    28    29   ar
    11    29    30   ar
    12    30    31    1
    13    30    32   ar
    14    32    33   ar
    15     3     4   ar
    16     4     5   ar
    17     5     6   ar
    18     6     7    1
    19     9    10    1
    20    10    11    1
    21    11    12    1
    22    12    13    1
    23    12    19    1
    24    19    20    1
    25    19    21    1
    26    19    22    1
    27    12    14    1
    28    14    15    1
    29    14    16    2
    30    16     9    1
    31     6     1   ar
    32    33    27   ar
    33    23    26    1
    34    15    17    1
    35    15    18    1
@<TRIPOS>MOLECULE
*****
 33 35 0 0 0
SMALL
GASTEIGER

@<TRIPOS>ATOM
      1 C          61.9292   88.1068   10.6845 C.ar    1  UNL1        0.0528
      2 C          62.8384   89.2152   10.2435 C.ar    1  UNL1        0.0167
      3 C          62.3817   90.6411   10.3347 C.ar    1  UNL1        0.0505
      4 C          61.0156   90.9584   10.8670 C.ar    1  UNL1        0.0170
      5 C          60.1064   89.8500   11.3080 C.ar    1  UNL1        0.0307
      6 C          60.5631   88.4241   11.2167 C.ar    1  UNL1        0.1402
      7 F          59.6539   87.3156   11.6577 F       1  UNL1       -0.2044
      8 C          62.0342   86.9342    9.1572 C.3     1  UNL1        0.0607
      9 C          62.3859   86.6809   10.5932 C.3     1  UNL1        0.2223
     10 C          62.5790   86.9228   12.0609 C.3     1  UNL1        0.1959
     11 O          63.1066   85.8268   12.9386 O.3     1  UNL1       -0.3357
     12 C          63.4412   84.4889   12.3486 C.3     1  UNL1        0.2740
     13 C          63.8979   83.0631   12.2573 C.3     1  UNL1        0.0512
     14 C          63.2481   84.2470   10.8809 C.2     1  UNL1        0.3217
     15 N          63.5827   82.9091   10.2909 N.pl3   1  UNL1       -0.2480
     16 N          62.7205   85.3429   10.0032 N.2     1  UNL1       -0.0692
     17 H          63.9290   82.1897   10.8670 H       1  UNL1        0.2882
     18 H          63.4560   82.7503    9.3276 H       1  UNL1        0.2882
     19 C          63.7929   84.2356   13.7847 C.3     1  UNL1        0.4305
     20 F          64.1447   83.9824   15.2207 F       1  UNL1       -0.1670
     21 F          65.2488   84.2124   13.4240 F       1  UNL1       -0.1670
     22 F          62.3371   84.2588   14.1452 F       1  UNL1       -0.1670
     23 N          63.2909   91.7496    9.8937 N.am    1  UNL1       -0.2791
     24 C          64.3885   92.2244   10.7992 C.2     1  UNL1        0.2672
     25 O          64.5768   91.5907   12.1457 O.2     1  UNL1       -0.2682
     26 H          63.1673   92.1655    9.0100 H       1  UNL1        0.1552
     27 C          65.2977   93.3329   10.3583 C.ar    1  UNL1        0.1348
     28 C          66.6772   93.0182    9.8601 C.ar    1  UNL1        0.0243
     29 C          67.5864   94.1268    9.4192 C.ar    1  UNL1        0.0100
     30 C          67.1162   95.5500    9.4764 C.ar    1  UNL1        0.0537
     31 BR         68.0255   96.6585    9.0355 Br      1  UNL1       -0.0474
     32 C          65.7368   95.8647    9.9746 C.ar    1  UNL1        0.1056
     33 N          64.8276   94.7562   10.4155 N.ar    1  UNL1       -0.2387
@<TRIPOS>BOND
     1     9     8    1
     2     9     1    1
     3     1     2   ar
     4     2     3   ar
     5     3    23    1
     6    23    24   am
     7    24    25    2
     8    24    27    1
     9    27    28   ar
    10    28    29   ar
    11    29    30   ar
    12    30    31    1
    13    30    32   ar
    14    32    33   ar
    15     3     4   ar
    16     4     5   ar
    17     5     6   ar
    18     6     7    1
    19     9    10    1
    20    10    11    1
    21    11    12    1
    22    12    13    1
    23    12    19    1
    24    19    20    1
    25    19    21    1
    26    19    22    1
    27    12    14    1
    28    14    15    1
    29    14    16    2
    30    16     9    1
    31     6     1   ar
    32    33    27   ar
    33    23    26    1
    34    15    17    1
    35    15    18    1
@<TRIPOS>MOLECULE
*****
 33 35 0 0 0
SMALL
GASTEIGER

@<TRIPOS>ATOM
      1 C          62.3213   89.9770   11.3106 C.ar    1  UNL1        0.0528
      2 C          62.4654   88.4939   11.4825 C.ar    1  UNL1        0.0167
      3 C          61.2522   87.6128   11.4418 C.ar    1  UNL1        0.0505
      4 C          59.8948   88.2149   11.2292 C.ar    1  UNL1        0.0170
      5 C          59.7508   89.6980   11.0573 C.ar    1  UNL1        0.0307
      6 C          60.9640   90.5790   11.0980 C.ar    1  UNL1        0.1402
      7 F          60.8200   92.0622   10.9261 F       1  UNL1       -0.2044
      8 C          63.2945   90.8137    9.8713 C.3     1  UNL1        0.0607
      9 C          63.5346   90.8581   11.3513 C.3     1  UNL1        0.2223
     10 C          63.3533   90.5966   12.8172 C.3     1  UNL1        0.1959
     11 O          64.3019   91.2008   13.8097 O.3     1  UNL1       -0.3357
     12 C          65.4318   92.0665   13.3364 C.3     1  UNL1        0.2740
     13 C          66.6450   92.9476   13.3771 C.3     1  UNL1        0.0512
     14 C          65.6131   92.3280   11.8706 C.2     1  UNL1        0.3217
     15 N          66.7430   93.1937   11.3973 N.pl3   1  UNL1       -0.2480
     16 N          64.6645   91.7238   10.8780 N.2     1  UNL1       -0.0692
     17 H          67.3656   93.5902   12.0487 H       1  UNL1        0.2882
     18 H          66.8619   93.3653   10.4352 H       1  UNL1        0.2882
     19 C          65.6719   92.1110   14.8164 C.3     1  UNL1        0.4305
     20 F          65.9120   92.1554   16.2965 F       1  UNL1       -0.1670
     21 F          66.1269   93.5355   14.6998 F       1  UNL1       -0.1670
     22 F          65.2169   90.6864   14.9330 F       1  UNL1       -0.1670
     23 N          61.3962   86.1296   11.6137 N.am    1  UNL1       -0.2791
     24 C          62.4346   85.5801   12.5463 C.2     1  UNL1        0.2672
     25 O          63.3289   86.5137   13.3071 O.2     1  UNL1       -0.2682
     26 H          60.8093   85.5169   11.1144 H       1  UNL1        0.1552
     27 C          62.5786   84.0970   12.7183 C.ar    1  UNL1        0.1348
     28 C          62.8745   83.2295   11.5308 C.ar    1  UNL1        0.0243
     29 C          63.0185   81.7463   11.7028 C.ar    1  UNL1        0.0100
     30 C          62.8668   81.1307   13.0622 C.ar    1  UNL1        0.0537
     31 BR         63.0108   79.6476   13.2341 Br      1  UNL1       -0.0474
     32 C          62.5709   81.9982   14.2496 C.ar    1  UNL1        0.1056
     33 N          62.4269   83.4813   14.0777 N.ar    1  UNL1       -0.2387
@<TRIPOS>BOND
     1     9     8    1
     2     9     1    1
     3     1     2   ar
     4     2     3   ar
     5     3    23    1
     6    23    24   am
     7    24    25    2
     8    24    27    1
     9    27    28   ar
    10    28    29   ar
    11    29    30   ar
    12    30    31    1
    13    30    32   ar
    14    32    33   ar
    15     3     4   ar
    16     4     5   ar
    17     5     6   ar
    18     6     7    1
    19     9    10    1
    20    10    11    1
    21    11    12    1
    22    12    13    1
    23    12    19    1
    24    19    20    1
    25    19    21    1
    26    19    22    1
    27    12    14    1
    28    14    15    1
    29    14    16    2
    30    16     9    1
    31     6     1   ar
    32    33    27   ar
    33    23    26    1
    34    15    17    1
    35    15    18    1
@<TRIPOS>MOLECULE
*****
 33 35 0 0 0
SMALL
GASTEIGER

@<TRIPOS>ATOM
      1 C          64.1119   89.0893   15.0443 C.ar    1  UNL1        0.0528
      2 C          64.1148   87.7348   14.4000 C.ar    1  UNL1        0.0167
      3 C          63.5860   86.5473   15.1484 C.ar    1  UNL1        0.0505
      4 C          63.0543   86.7143   16.5410 C.ar    1  UNL1        0.0170
      5 C          63.0514   88.0688   17.1853 C.ar    1  UNL1        0.0307
      6 C          63.5803   89.2563   16.4369 C.ar    1  UNL1        0.1402
      7 F          63.5774   90.6110   17.0812 F       1  UNL1       -0.2044
      8 C          65.4364   90.3917   15.5624 C.3     1  UNL1        0.0607
      9 C          64.6408   90.2770   14.2960 C.3     1  UNL1        0.2223
     10 C          63.6616   89.7498   13.2894 C.3     1  UNL1        0.1959
     11 O          63.4875   90.4500   11.9744 O.3     1  UNL1       -0.3357
     12 C          64.2926   91.6775   11.6659 C.3     1  UNL1        0.2740
     13 C          64.8215   92.8651   10.9176 C.3     1  UNL1        0.0512
     14 C          65.2718   92.2047   12.6724 C.2     1  UNL1        0.3217
     15 N          66.0770   93.4321   12.3640 N.pl3   1  UNL1       -0.2480
     16 N          65.4459   91.5044   13.9875 N.2     1  UNL1       -0.0692
     17 H          65.9627   93.8917   11.5009 H       1  UNL1        0.2882
     18 H          66.7197   93.7782   13.0246 H       1  UNL1        0.2882
     19 C          63.4971   91.5627   10.3994 C.3     1  UNL1        0.4305
     20 F          62.7015   91.4480    9.1329 F       1  UNL1       -0.1670
     21 F          64.6782   92.0497    9.6133 F       1  UNL1       -0.1670
     22 F          62.3160   91.0758   11.1855 F       1  UNL1       -0.1670
     23 N          63.5889   85.1926   14.5041 N.am    1  UNL1       -0.2791
     24 C          63.1089   85.0327   13.0920 C.2     1  UNL1        0.2672
     25 O          62.6260   86.2275   12.3242 O.2     1  UNL1       -0.2682
     26 H          63.9058   84.4085   15.0080 H       1  UNL1        0.1552
     27 C          63.1117   83.6782   12.4477 C.ar    1  UNL1        0.1348
     28 C          63.5910   83.5205   11.0351 C.ar    1  UNL1        0.0243
     29 C          63.5938   82.1659   10.3908 C.ar    1  UNL1        0.0100
     30 C          63.1174   80.9690   11.1591 C.ar    1  UNL1        0.0537
     31 BR         63.1202   79.6144   10.5149 Br      1  UNL1       -0.0474
     32 C          62.6381   81.1266   12.5718 C.ar    1  UNL1        0.1056
     33 N          62.6353   82.4812   13.2160 N.ar    1  UNL1       -0.2387
@<TRIPOS>BOND
     1     9     8    1
     2     9     1    1
     3     1     2   ar
     4     2     3   ar
     5     3    23    1
     6    23    24   am
     7    24    25    2
     8    24    27    1
     9    27    28   ar
    10    28    29   ar
    11    29    30   ar
    12    30    31    1
    13    30    32   ar
    14    32    33   ar
    15     3     4   ar
    16     4     5   ar
    17     5     6   ar
    18     6     7    1
    19     9    10    1
    20    10    11    1
    21    11    12    1
    22    12    13    1
    23    12    19    1
    24    19    20    1
    25    19    21    1
    26    19    22    1
    27    12    14    1
    28    14    15    1
    29    14    16    2
    30    16     9    1
    31     6     1   ar
    32    33    27   ar
    33    23    26    1
    34    15    17    1
    35    15    18    1
