@<TRIPOS>MOLECULE
*****
 29 31 0 0 0
SMALL
GASTEIGER

@<TRIPOS>ATOM
      1 O          59.9281   88.0424   11.6848 O.2     1  UNL1       -0.2732
      2 C          61.1677   88.8312   11.3830 C.2     1  UNL1        0.2430
      3 N          62.3887   88.1371   10.8563 N.am    1  UNL1       -0.2972
      4 H          63.2023   88.6548   10.6582 H       1  UNL1        0.1500
      5 C          61.1864   90.3141   11.6078 C.3     1  UNL1        0.1759
      6 N          62.4930   91.0296   11.7839 N.am    1  UNL1       -0.2931
      7 C          63.4038   90.6598   12.9169 C.2     1  UNL1        0.2463
      8 O          63.0081   89.5745   13.8738 O.2     1  UNL1       -0.2701
      9 H          62.7527   91.7419   11.1559 H       1  UNL1        0.1502
     10 C          64.7104   91.3753   13.0930 C.ar    1  UNL1        0.0565
     11 C          65.1881   92.3338   12.0427 C.ar    1  UNL1        0.0252
     12 C          66.4947   93.0492   12.2189 C.ar    1  UNL1        0.0990
     13 N          67.3234   92.8062   13.4453 N.ar    1  UNL1       -0.2423
     14 C          66.8457   91.8478   14.4956 C.ar    1  UNL1        0.0990
     15 C          65.5392   91.1323   14.3194 C.ar    1  UNL1        0.0252
     16 C          62.3701   86.6541   10.6315 C.3     1  UNL1        0.1169
     17 C          62.7412   85.7218   11.7464 C.ar    1  UNL1       -0.0003
     18 C          63.4127   86.2545   12.9774 C.ar    1  UNL1       -0.0015
     19 C          63.7839   85.3222   14.0923 C.ar    1  UNL1        0.0111
     20 C          63.4836   83.8571   13.9762 C.ar    1  UNL1        0.0577
     21 CL         63.8548   82.9248   15.0911 Cl      1  UNL1       -0.0822
     22 C          62.8122   83.3244   12.7452 C.ar    1  UNL1        0.0111
     23 C          62.4410   84.2567   11.6303 C.ar    1  UNL1       -0.0015
     24 C          61.9803   86.1035    9.2917 C.ar    1  UNL1       -0.0003
     25 C          62.9974   85.3945    8.4475 C.ar    1  UNL1       -0.0024
     26 C          62.6076   84.8438    7.1077 C.ar    1  UNL1       -0.0003
     27 C          61.2007   85.0023    6.6122 C.ar    1  UNL1       -0.0000
     28 C          60.1836   85.7113    7.4565 C.ar    1  UNL1       -0.0003
     29 C          60.5734   86.2619    8.7962 C.ar    1  UNL1       -0.0024
@<TRIPOS>BOND
     1     1     2    2
     2     2     5    1
     3     5     6    1
     4     6     7   am
     5     7     8    2
     6     7    10    1
     7    10    11   ar
     8    11    12   ar
     9    12    13   ar
    10    13    14   ar
    11    14    15   ar
    12     2     3   am
    13     3    16    1
    14    16    24    1
    15    24    25   ar
    16    25    26   ar
    17    26    27   ar
    18    27    28   ar
    19    28    29   ar
    20    16    17    1
    21    17    18   ar
    22    18    19   ar
    23    19    20   ar
    24    20    21    1
    25    20    22   ar
    26    22    23   ar
    27    15    10   ar
    28    29    24   ar
    29    23    17   ar
    30     6     9    1
    31     3     4    1
@<TRIPOS>MOLECULE
*****
 29 31 0 0 0
SMALL
GASTEIGER

@<TRIPOS>ATOM
      1 O          59.9909   87.9172   11.6291 O.2     1  UNL1       -0.2732
      2 C          61.2636   88.6830   11.4193 C.2     1  UNL1        0.2430
      3 N          62.5069   87.9663   10.9828 N.am    1  UNL1       -0.2972
      4 H          63.3421   88.4689   10.8451 H       1  UNL1        0.1500
      5 C          61.2929   90.1654   11.6461 C.3     1  UNL1        0.1759
      6 N          62.6055   90.8739   11.8058 N.am    1  UNL1       -0.2931
      7 C          63.4187   90.6747   13.0503 C.2     1  UNL1        0.2463
      8 O          62.9195   89.7671   14.1352 O.2     1  UNL1       -0.2701
      9 H          62.9331   91.4696   11.0937 H       1  UNL1        0.1502
     10 C          64.7312   91.3832   13.2100 C.ar    1  UNL1        0.0565
     11 C          65.1721   92.3854   12.1847 C.ar    1  UNL1        0.0252
     12 C          66.4846   93.0938   12.3445 C.ar    1  UNL1        0.0990
     13 N          67.3561   92.8001   13.5294 N.ar    1  UNL1       -0.2423
     14 C          66.9152   91.7979   14.5547 C.ar    1  UNL1        0.0990
     15 C          65.6027   91.0895   14.3950 C.ar    1  UNL1        0.0252
     16 C          62.4775   86.4838   10.7560 C.3     1  UNL1        0.1169
     17 C          62.1709   85.9396    9.3923 C.ar    1  UNL1       -0.0003
     18 C          60.8027   86.1180    8.8038 C.ar    1  UNL1       -0.0015
     19 C          60.4961   85.5738    7.4400 C.ar    1  UNL1        0.0111
     20 C          61.5577   84.8513    6.6647 C.ar    1  UNL1        0.0577
     21 CL         61.2512   84.3071    5.3009 Cl      1  UNL1       -0.0822
     22 C          62.9259   84.6729    7.2532 C.ar    1  UNL1        0.0111
     23 C          63.2325   85.2171    8.6170 C.ar    1  UNL1       -0.0015
     24 C          62.7548   85.5455   11.8930 C.ar    1  UNL1       -0.0003
     25 C          62.4217   84.0889   11.7616 C.ar    1  UNL1       -0.0024
     26 C          62.6989   83.1506   12.8986 C.ar    1  UNL1       -0.0003
     27 C          63.3094   83.6689   14.1670 C.ar    1  UNL1       -0.0000
     28 C          63.6425   85.1256   14.2983 C.ar    1  UNL1       -0.0003
     29 C          63.3652   86.0638   13.1613 C.ar    1  UNL1       -0.0024
@<TRIPOS>BOND
     1     1     2    2
     2     2     5    1
     3     5     6    1
     4     6     7   am
     5     7     8    2
     6     7    10    1
     7    10    11   ar
     8    11    12   ar
     9    12    13   ar
    10    13    14   ar
    11    14    15   ar
    12     2     3   am
    13     3    16    1
    14    16    24    1
    15    24    25   ar
    16    25    26   ar
    17    26    27   ar
    18    27    28   ar
    19    28    29   ar
    20    16    17    1
    21    17    18   ar
    22    18    19   ar
    23    19    20   ar
    24    20    21    1
    25    20    22   ar
    26    22    23   ar
    27    15    10   ar
    28    29    24   ar
    29    23    17   ar
    30     6     9    1
    31     3     4    1
@<TRIPOS>MOLECULE
*****
 29 31 0 0 0
SMALL
GASTEIGER

@<TRIPOS>ATOM
      1 O          59.9074   87.8709   11.5694 O.2     1  UNL1       -0.2732
      2 C          61.1606   88.6761   11.3930 C.2     1  UNL1        0.2430
      3 N          62.4371   87.9985   10.9914 N.am    1  UNL1       -0.2972
      4 H          63.2596   88.5269   10.8756 H       1  UNL1        0.1500
      5 C          61.1374   90.1588   11.6183 C.3     1  UNL1        0.1759
      6 N          62.4246   90.9207   11.7306 N.am    1  UNL1       -0.2931
      7 C          63.3821   90.6153   12.8441 C.2     1  UNL1        0.2463
      8 O          63.0525   89.5481   13.8452 O.2     1  UNL1       -0.2701
      9 H          62.6410   91.6212   11.0735 H       1  UNL1        0.1502
     10 C          64.6694   91.3772   12.9564 C.ar    1  UNL1        0.0565
     11 C          65.5189   91.2375   14.1848 C.ar    1  UNL1        0.0252
     12 C          66.8061   91.9993   14.2971 C.ar    1  UNL1        0.0990
     13 N          67.2438   92.9009   13.1811 N.ar    1  UNL1       -0.2423
     14 C          66.3944   93.0406   11.9527 C.ar    1  UNL1        0.0990
     15 C          65.1072   92.2787   11.8404 C.ar    1  UNL1        0.0252
     16 C          62.4604   86.5156   10.7661 C.3     1  UNL1        0.1169
     17 C          62.1750   85.9596    9.4025 C.ar    1  UNL1       -0.0003
     18 C          60.8194   86.1420    8.7868 C.ar    1  UNL1       -0.0015
     19 C          60.5340   85.5860    7.4232 C.ar    1  UNL1        0.0111
     20 C          61.6043   84.8476    6.6753 C.ar    1  UNL1        0.0577
     21 CL         61.3189   84.2915    5.3117 Cl      1  UNL1       -0.0822
     22 C          62.9598   84.6652    7.2910 C.ar    1  UNL1        0.0111
     23 C          63.2452   85.2212    8.6546 C.ar    1  UNL1       -0.0015
     24 C          62.7691   85.5889   11.9044 C.ar    1  UNL1       -0.0003
     25 C          62.4475   84.1282   11.7907 C.ar    1  UNL1       -0.0024
     26 C          62.7562   83.2014   12.9290 C.ar    1  UNL1       -0.0003
     27 C          63.3865   83.7353   14.1811 C.ar    1  UNL1       -0.0000
     28 C          63.7082   85.1960   14.2948 C.ar    1  UNL1       -0.0003
     29 C          63.3995   86.1228   13.1565 C.ar    1  UNL1       -0.0024
@<TRIPOS>BOND
     1     1     2    2
     2     2     5    1
     3     5     6    1
     4     6     7   am
     5     7     8    2
     6     7    10    1
     7    10    11   ar
     8    11    12   ar
     9    12    13   ar
    10    13    14   ar
    11    14    15   ar
    12     2     3   am
    13     3    16    1
    14    16    24    1
    15    24    25   ar
    16    25    26   ar
    17    26    27   ar
    18    27    28   ar
    19    28    29   ar
    20    16    17    1
    21    17    18   ar
    22    18    19   ar
    23    19    20   ar
    24    20    21    1
    25    20    22   ar
    26    22    23   ar
    27    15    10   ar
    28    29    24   ar
    29    23    17   ar
    30     6     9    1
    31     3     4    1
@<TRIPOS>MOLECULE
*****
 29 31 0 0 0
SMALL
GASTEIGER

@<TRIPOS>ATOM
      1 O          62.5203   89.6982   16.0295 O.2     1  UNL1       -0.2732
      2 C          63.4735   88.5551   15.8435 C.2     1  UNL1        0.2430
      3 N          64.6057   88.6739   14.8668 N.am    1  UNL1       -0.2972
      4 H          65.2313   87.9236   14.7447 H       1  UNL1        0.1500
      5 C          63.2945   87.2930   16.6342 C.3     1  UNL1        0.1759
      6 N          62.9338   86.0153   15.9361 N.am    1  UNL1       -0.2931
      7 C          63.9655   85.2848   15.1286 C.2     1  UNL1        0.2463
      8 O          65.3578   85.8319   15.0193 O.2     1  UNL1       -0.2701
      9 H          62.0200   85.6562   16.0078 H       1  UNL1        0.1502
     10 C          63.6048   84.0070   14.4305 C.ar    1  UNL1        0.0565
     11 C          64.3808   83.5662   13.2249 C.ar    1  UNL1        0.0252
     12 C          64.0201   82.2885   12.5268 C.ar    1  UNL1        0.0990
     13 N          62.8834   81.4517   13.0343 N.ar    1  UNL1       -0.2423
     14 C          62.1073   81.8925   14.2399 C.ar    1  UNL1        0.0990
     15 C          62.4681   83.1702   14.9379 C.ar    1  UNL1        0.0252
     16 C          64.7847   89.9360   14.0760 C.3     1  UNL1        0.1169
     17 C          65.7228   90.9999   14.5638 C.ar    1  UNL1       -0.0003
     18 C          67.0481   91.1979   13.8897 C.ar    1  UNL1       -0.0015
     19 C          67.9862   92.2619   14.3775 C.ar    1  UNL1        0.0111
     20 C          67.5989   93.1279   15.5394 C.ar    1  UNL1        0.0577
     21 CL         68.5370   94.1919   16.0272 Cl      1  UNL1       -0.0822
     22 C          66.2737   92.9299   16.2135 C.ar    1  UNL1        0.0111
     23 C          65.3356   91.8660   15.7257 C.ar    1  UNL1       -0.0015
     24 C          64.0257   90.1340   12.7975 C.ar    1  UNL1       -0.0003
     25 C          64.2065   91.3949   12.0056 C.ar    1  UNL1       -0.0024
     26 C          63.4475   91.5930   10.7270 C.ar    1  UNL1       -0.0003
     27 C          62.5076   90.5300   10.2404 C.ar    1  UNL1       -0.0000
     28 C          62.3268   89.2690   11.0324 C.ar    1  UNL1       -0.0003
     29 C          63.0858   89.0710   12.3109 C.ar    1  UNL1       -0.0024
@<TRIPOS>BOND
     1     1     2    2
     2     2     5    1
     3     5     6    1
     4     6     7   am
     5     7     8    2
     6     7    10    1
     7    10    11   ar
     8    11    12   ar
     9    12    13   ar
    10    13    14   ar
    11    14    15   ar
    12     2     3   am
    13     3    16    1
    14    16    24    1
    15    24    25   ar
    16    25    26   ar
    17    26    27   ar
    18    27    28   ar
    19    28    29   ar
    20    16    17    1
    21    17    18   ar
    22    18    19   ar
    23    19    20   ar
    24    20    21    1
    25    20    22   ar
    26    22    23   ar
    27    15    10   ar
    28    29    24   ar
    29    23    17   ar
    30     6     9    1
    31     3     4    1
@<TRIPOS>MOLECULE
*****
 29 31 0 0 0
SMALL
GASTEIGER

@<TRIPOS>ATOM
      1 O          60.9060   89.1404   12.3100 O.2     1  UNL1       -0.2732
      2 C          62.2932   89.4392   11.8239 C.2     1  UNL1        0.2430
      3 N          62.9243   88.5703   10.7767 N.am    1  UNL1       -0.2972
      4 H          63.8348   88.7664   10.4577 H       1  UNL1        0.1500
      5 C          63.0493   90.6068   12.3850 C.3     1  UNL1        0.1759
      6 N          63.9988   91.3743   11.5134 N.am    1  UNL1       -0.2931
      7 C          65.0405   92.2568   12.1346 C.2     1  UNL1        0.2463
      8 O          65.1330   92.3718   13.6273 O.2     1  UNL1       -0.2701
      9 H          63.9381   91.2989   10.5337 H       1  UNL1        0.1502
     10 C          65.9900   93.0243   11.2630 C.ar    1  UNL1        0.0565
     11 C          66.9959   92.2933   10.4243 C.ar    1  UNL1        0.0252
     12 C          67.9453   93.0608    9.5528 C.ar    1  UNL1        0.0990
     13 N          67.8887   94.5594    9.5200 N.ar    1  UNL1       -0.2423
     14 C          66.8827   95.2904   10.3588 C.ar    1  UNL1        0.0990
     15 C          65.9334   94.5229   11.2303 C.ar    1  UNL1        0.0252
     16 C          62.1682   87.4026   10.2155 C.3     1  UNL1        0.1169
     17 C          62.5283   86.0067   10.6301 C.ar    1  UNL1       -0.0003
     18 C          63.1634   85.0717    9.6439 C.ar    1  UNL1       -0.0015
     19 C          63.5236   83.6759   10.0585 C.ar    1  UNL1        0.0111
     20 C          63.2486   83.2150   11.4592 C.ar    1  UNL1        0.0577
     21 CL         63.6087   81.8191   11.8738 Cl      1  UNL1       -0.0822
     22 C          62.6135   84.1500   12.4453 C.ar    1  UNL1        0.0111
     23 C          62.2533   85.5458   12.0308 C.ar    1  UNL1       -0.0015
     24 C          61.0520   87.6308    9.2398 C.ar    1  UNL1       -0.0003
     25 C          60.6924   89.0266    8.8248 C.ar    1  UNL1       -0.0024
     26 C          59.5762   89.2549    7.8490 C.ar    1  UNL1       -0.0003
     27 C          58.8196   88.0873    7.2884 C.ar    1  UNL1       -0.0000
     28 C          59.1793   86.6914    7.7035 C.ar    1  UNL1       -0.0003
     29 C          60.2954   86.4632    8.6792 C.ar    1  UNL1       -0.0024
@<TRIPOS>BOND
     1     1     2    2
     2     2     5    1
     3     5     6    1
     4     6     7   am
     5     7     8    2
     6     7    10    1
     7    10    11   ar
     8    11    12   ar
     9    12    13   ar
    10    13    14   ar
    11    14    15   ar
    12     2     3   am
    13     3    16    1
    14    16    24    1
    15    24    25   ar
    16    25    26   ar
    17    26    27   ar
    18    27    28   ar
    19    28    29   ar
    20    16    17    1
    21    17    18   ar
    22    18    19   ar
    23    19    20   ar
    24    20    21    1
    25    20    22   ar
    26    22    23   ar
    27    15    10   ar
    28    29    24   ar
    29    23    17   ar
    30     6     9    1
    31     3     4    1
@<TRIPOS>MOLECULE
*****
 29 31 0 0 0
SMALL
GASTEIGER

@<TRIPOS>ATOM
      1 O          61.6412   89.8062   13.7250 O.2     1  UNL1       -0.2732
      2 C          62.4950   90.2107   12.5599 C.2     1  UNL1        0.2430
      3 N          63.9685   90.4203   12.7469 N.am    1  UNL1       -0.2972
      4 H          64.5288   90.6858   11.9822 H       1  UNL1        0.1500
      5 C          61.8754   90.4055   11.2079 C.3     1  UNL1        0.1759
      6 N          62.0229   89.3467   10.1556 N.am    1  UNL1       -0.2931
      7 C          61.2423   88.0703   10.2613 C.2     1  UNL1        0.2463
      8 O          60.3140   87.8526   11.4193 O.2     1  UNL1       -0.2701
      9 H          62.6322   89.4896    9.3956 H       1  UNL1        0.1502
     10 C          61.3898   87.0115    9.2090 C.ar    1  UNL1        0.0565
     11 C          60.2393   86.6904    8.3017 C.ar    1  UNL1        0.0252
     12 C          60.3869   85.6316    7.2495 C.ar    1  UNL1        0.0990
     13 N          61.6850   84.8940    7.1045 N.ar    1  UNL1       -0.2423
     14 C          62.8354   85.2152    8.0118 C.ar    1  UNL1        0.0990
     15 C          62.6879   86.2739    9.0641 C.ar    1  UNL1        0.0252
     16 C          64.5882   90.2255   14.0990 C.3     1  UNL1        0.1169
     17 C          65.6409   91.1767   14.5856 C.ar    1  UNL1       -0.0003
     18 C          65.4202   91.9586   15.8466 C.ar    1  UNL1       -0.0015
     19 C          66.4729   92.9099   16.3332 C.ar    1  UNL1        0.0111
     20 C          67.7464   93.0793   15.5588 C.ar    1  UNL1        0.0577
     21 CL         68.7991   94.0306   16.0455 Cl      1  UNL1       -0.0822
     22 C          67.9671   92.2974   14.2979 C.ar    1  UNL1        0.0111
     23 C          66.9144   91.3462   13.8113 C.ar    1  UNL1       -0.0015
     24 C          64.1551   89.0794   14.9644 C.ar    1  UNL1       -0.0003
     25 C          64.4787   87.6713   14.5613 C.ar    1  UNL1       -0.0024
     26 C          64.0457   86.5251   15.4267 C.ar    1  UNL1       -0.0003
     27 C          63.2891   86.7871   16.6952 C.ar    1  UNL1       -0.0000
     28 C          62.9655   88.1953   17.0982 C.ar    1  UNL1       -0.0003
     29 C          63.3985   89.3414   16.2328 C.ar    1  UNL1       -0.0024
@<TRIPOS>BOND
     1     1     2    2
     2     2     5    1
     3     5     6    1
     4     6     7   am
     5     7     8    2
     6     7    10    1
     7    10    11   ar
     8    11    12   ar
     9    12    13   ar
    10    13    14   ar
    11    14    15   ar
    12     2     3   am
    13     3    16    1
    14    16    24    1
    15    24    25   ar
    16    25    26   ar
    17    26    27   ar
    18    27    28   ar
    19    28    29   ar
    20    16    17    1
    21    17    18   ar
    22    18    19   ar
    23    19    20   ar
    24    20    21    1
    25    20    22   ar
    26    22    23   ar
    27    15    10   ar
    28    29    24   ar
    29    23    17   ar
    30     6     9    1
    31     3     4    1
@<TRIPOS>MOLECULE
*****
 29 31 0 0 0
SMALL
GASTEIGER

@<TRIPOS>ATOM
      1 O          62.3710   88.5713   16.4619 O.2     1  UNL1       -0.2732
      2 C          63.3768   87.5585   16.0010 C.2     1  UNL1        0.2430
      3 N          64.3034   87.8839   14.8672 N.am    1  UNL1       -0.2972
      4 H          64.9636   87.2191   14.5646 H       1  UNL1        0.1500
      5 C          63.4561   86.2203   16.6738 C.3     1  UNL1        0.1759
      6 N          62.9617   84.9940   15.9653 N.am    1  UNL1       -0.2931
      7 C          63.8052   84.3484   14.9063 C.2     1  UNL1        0.2463
      8 O          65.1432   84.9289   14.5558 O.2     1  UNL1       -0.2701
      9 H          62.0835   84.6130   16.1953 H       1  UNL1        0.1502
     10 C          63.3108   83.1221   14.1977 C.ar    1  UNL1        0.0565
     11 C          64.0594   82.5874   13.0130 C.ar    1  UNL1        0.0252
     12 C          63.5649   81.3612   12.3045 C.ar    1  UNL1        0.0990
     13 N          62.3219   80.6698   12.7808 N.ar    1  UNL1       -0.2423
     14 C          61.5734   81.2045   13.9655 C.ar    1  UNL1        0.0990
     15 C          62.0678   82.4307   14.6740 C.ar    1  UNL1        0.0252
     16 C          64.2242   89.2222   14.1942 C.3     1  UNL1        0.1169
     17 C          63.4663   89.3713   12.9084 C.ar    1  UNL1       -0.0003
     18 C          62.9749   88.1544   12.1819 C.ar    1  UNL1       -0.0015
     19 C          62.2170   88.3036   10.8961 C.ar    1  UNL1        0.0111
     20 C          61.9506   89.6697   10.3367 C.ar    1  UNL1        0.0577
     21 CL         61.1927   89.8189    9.0508 Cl      1  UNL1       -0.0822
     22 C          62.4420   90.8865   11.0631 C.ar    1  UNL1        0.0111
     23 C          63.1999   90.7374   12.3490 C.ar    1  UNL1       -0.0015
     24 C          64.9028   90.4112   14.8071 C.ar    1  UNL1       -0.0003
     25 C          66.2559   90.8365   14.3191 C.ar    1  UNL1       -0.0024
     26 C          66.9345   92.0256   14.9320 C.ar    1  UNL1       -0.0003
     27 C          66.2601   92.7893   16.0329 C.ar    1  UNL1       -0.0000
     28 C          64.9069   92.3638   16.5209 C.ar    1  UNL1       -0.0003
     29 C          64.2283   91.1748   15.9080 C.ar    1  UNL1       -0.0024
@<TRIPOS>BOND
     1     1     2    2
     2     2     5    1
     3     5     6    1
     4     6     7   am
     5     7     8    2
     6     7    10    1
     7    10    11   ar
     8    11    12   ar
     9    12    13   ar
    10    13    14   ar
    11    14    15   ar
    12     2     3   am
    13     3    16    1
    14    16    24    1
    15    24    25   ar
    16    25    26   ar
    17    26    27   ar
    18    27    28   ar
    19    28    29   ar
    20    16    17    1
    21    17    18   ar
    22    18    19   ar
    23    19    20   ar
    24    20    21    1
    25    20    22   ar
    26    22    23   ar
    27    15    10   ar
    28    29    24   ar
    29    23    17   ar
    30     6     9    1
    31     3     4    1
@<TRIPOS>MOLECULE
*****
 29 31 0 0 0
SMALL
GASTEIGER

@<TRIPOS>ATOM
      1 O          61.7471   89.8989   13.6262 O.2     1  UNL1       -0.2732
      2 C          62.5897   90.3388   12.4658 C.2     1  UNL1        0.2430
      3 N          64.0550   90.5960   12.6577 N.am    1  UNL1       -0.2972
      4 H          64.6080   90.8847   11.8960 H       1  UNL1        0.1500
      5 C          61.9670   90.5215   11.1134 C.3     1  UNL1        0.1759
      6 N          62.0816   89.4379   10.0824 N.am    1  UNL1       -0.2931
      7 C          61.2715   88.1831   10.2201 C.2     1  UNL1        0.2463
      8 O          60.3468   88.0116   11.3887 O.2     1  UNL1       -0.2701
      9 H          62.6884   89.5504    9.3154 H       1  UNL1        0.1502
     10 C          61.3860   87.0995    9.1890 C.ar    1  UNL1        0.0565
     11 C          62.6661   86.3304    9.0483 C.ar    1  UNL1        0.0252
     12 C          62.7805   85.2470    8.0173 C.ar    1  UNL1        0.0990
     13 N          61.6149   84.9326    7.1271 N.ar    1  UNL1       -0.2423
     14 C          60.3348   85.7017    7.2678 C.ar    1  UNL1        0.0990
     15 C          60.2204   86.7851    8.2988 C.ar    1  UNL1        0.0252
     16 C          64.6777   90.4133   14.0101 C.3     1  UNL1        0.1169
     17 C          64.1902   89.3245   14.9193 C.ar    1  UNL1       -0.0003
     18 C          64.4642   87.8883   14.5837 C.ar    1  UNL1       -0.0015
     19 C          63.9767   86.7995   15.4930 C.ar    1  UNL1        0.0111
     20 C          63.2152   87.1468   16.7379 C.ar    1  UNL1        0.0577
     21 CL         62.7277   86.0580   17.6472 Cl      1  UNL1       -0.0822
     22 C          62.9413   88.5829   17.0734 C.ar    1  UNL1        0.0111
     23 C          63.4288   89.6717   16.1641 C.ar    1  UNL1       -0.0015
     24 C          65.7879   91.3194   14.4531 C.ar    1  UNL1       -0.0003
     25 C          67.0083   91.4843   13.5967 C.ar    1  UNL1       -0.0024
     26 C          68.1186   92.3905   14.0398 C.ar    1  UNL1       -0.0003
     27 C          68.0084   93.1317   15.3392 C.ar    1  UNL1       -0.0000
     28 C          66.7879   92.9668   16.1955 C.ar    1  UNL1       -0.0003
     29 C          65.6777   92.0607   15.7525 C.ar    1  UNL1       -0.0024
@<TRIPOS>BOND
     1     1     2    2
     2     2     5    1
     3     5     6    1
     4     6     7   am
     5     7     8    2
     6     7    10    1
     7    10    11   ar
     8    11    12   ar
     9    12    13   ar
    10    13    14   ar
    11    14    15   ar
    12     2     3   am
    13     3    16    1
    14    16    24    1
    15    24    25   ar
    16    25    26   ar
    17    26    27   ar
    18    27    28   ar
    19    28    29   ar
    20    16    17    1
    21    17    18   ar
    22    18    19   ar
    23    19    20   ar
    24    20    21    1
    25    20    22   ar
    26    22    23   ar
    27    15    10   ar
    28    29    24   ar
    29    23    17   ar
    30     6     9    1
    31     3     4    1
@<TRIPOS>MOLECULE
*****
 29 31 0 0 0
SMALL
GASTEIGER

@<TRIPOS>ATOM
      1 O          64.9141   84.7010   13.9542 O.2     1  UNL1       -0.2732
      2 C          63.9865   85.8775   14.0264 C.2     1  UNL1        0.2430
      3 N          62.8084   85.9616   13.1017 N.am    1  UNL1       -0.2972
      4 H          62.1996   86.7338   13.1490 H       1  UNL1        0.1500
      5 C          64.2369   86.9701   15.0231 C.3     1  UNL1        0.1759
      6 N          64.8895   88.2483   14.5868 N.am    1  UNL1       -0.2931
      7 C          64.1023   89.5251   14.5714 C.2     1  UNL1        0.2463
      8 O          62.6626   89.5236   14.9923 O.2     1  UNL1       -0.2701
      9 H          65.8344   88.2493   14.3105 H       1  UNL1        0.1502
     10 C          64.7549   90.8033   14.1350 C.ar    1  UNL1        0.0565
     11 C          65.6101   91.5748   15.0959 C.ar    1  UNL1        0.0252
     12 C          66.2626   92.8530   14.6595 C.ar    1  UNL1        0.0990
     13 N          66.0599   93.3596   13.2623 N.ar    1  UNL1       -0.2423
     14 C          65.2047   92.5881   12.3014 C.ar    1  UNL1        0.0990
     15 C          64.5522   91.3099   12.7378 C.ar    1  UNL1        0.0252
     16 C          62.5579   84.8690   12.1049 C.3     1  UNL1        0.1169
     17 C          62.5432   83.4366   12.5499 C.ar    1  UNL1       -0.0003
     18 C          63.0037   82.3564   11.6165 C.ar    1  UNL1       -0.0015
     19 C          62.9890   80.9241   12.0615 C.ar    1  UNL1        0.0111
     20 C          62.5139   80.5719   13.4401 C.ar    1  UNL1        0.0577
     21 CL         62.4992   79.1395   13.8851 Cl      1  UNL1       -0.0822
     22 C          62.0534   81.6520   14.3734 C.ar    1  UNL1        0.0111
     23 C          62.0681   83.0844   13.9284 C.ar    1  UNL1       -0.0015
     24 C          62.3221   85.2088   10.6631 C.ar    1  UNL1       -0.0003
     25 C          61.1327   86.0349   10.2721 C.ar    1  UNL1       -0.0024
     26 C          60.8968   86.3747    8.8302 C.ar    1  UNL1       -0.0003
     27 C          61.8504   85.8885    7.7794 C.ar    1  UNL1       -0.0000
     28 C          63.0399   85.0624    8.1704 C.ar    1  UNL1       -0.0003
     29 C          63.2757   84.7226    9.6122 C.ar    1  UNL1       -0.0024
@<TRIPOS>BOND
     1     1     2    2
     2     2     5    1
     3     5     6    1
     4     6     7   am
     5     7     8    2
     6     7    10    1
     7    10    11   ar
     8    11    12   ar
     9    12    13   ar
    10    13    14   ar
    11    14    15   ar
    12     2     3   am
    13     3    16    1
    14    16    24    1
    15    24    25   ar
    16    25    26   ar
    17    26    27   ar
    18    27    28   ar
    19    28    29   ar
    20    16    17    1
    21    17    18   ar
    22    18    19   ar
    23    19    20   ar
    24    20    21    1
    25    20    22   ar
    26    22    23   ar
    27    15    10   ar
    28    29    24   ar
    29    23    17   ar
    30     6     9    1
    31     3     4    1
