@<TRIPOS>MOLECULE
*****
 21 23 0 0 0
SMALL
GASTEIGER

@<TRIPOS>ATOM
      1 C          62.3700   89.2895   10.7888 C.ar    1  UNL1        0.0295
      2 C          63.0740   90.5681   10.4433 C.ar    1  UNL1        0.0070
      3 C          63.9204   90.9631   11.6171 C.ar    1  UNL1        0.0071
      4 C          63.7395   89.9285   12.6880 C.ar    1  UNL1        0.0354
      5 S          62.7812   88.8942   12.1761 S.2     1  UNL1       -0.0864
      6 O          58.5751   86.2839    7.2440 O.3     1  UNL1       -0.5055
      7 C          59.5238   87.0353    8.1302 C.ar    1  UNL1        0.1337
      8 C          60.4905   86.2870    8.9993 C.ar    1  UNL1        0.0366
      9 C          61.4392   87.0383    9.8855 C.ar    1  UNL1        0.0036
     10 C          61.4212   88.5381    9.9026 C.ar    1  UNL1        0.0062
     11 C          60.4546   89.2865    9.0335 C.ar    1  UNL1        0.0036
     12 C          59.5058   88.5351    8.1473 C.ar    1  UNL1        0.0366
     13 H          58.5863   85.3471    7.2334 H       1  UNL1        0.2922
     14 C          64.7943   92.1791   11.7045 C.ar    1  UNL1        0.0035
     15 C          65.4887   92.5126   12.9916 C.ar    1  UNL1        0.0002
     16 C          66.3626   93.7286   13.0790 C.ar    1  UNL1        0.0031
     17 C          66.5420   94.6110   11.8794 C.ar    1  UNL1        0.0366
     18 C          65.8477   94.2775   10.5924 C.ar    1  UNL1        0.1337
     19 O          66.0271   95.1599    9.3928 O.3     1  UNL1       -0.5055
     20 C          64.9738   93.0615   10.5049 C.ar    1  UNL1        0.0366
     21 H          66.5730   95.9195    9.4474 H       1  UNL1        0.2922
@<TRIPOS>BOND
     1     6     7    1
     2     7     8   ar
     3     8     9   ar
     4     9    10   ar
     5    10     1    1
     6     1     2   ar
     7     2     3   ar
     8     3    14    1
     9    14    15   ar
    10    15    16   ar
    11    16    17   ar
    12    17    18   ar
    13    18    19    1
    14    18    20   ar
    15     3     4   ar
    16     4     5   ar
    17    10    11   ar
    18    11    12   ar
    19    12     7   ar
    20     5     1   ar
    21    20    14   ar
    22     6    13    1
    23    19    21    1
@<TRIPOS>MOLECULE
*****
 21 23 0 0 0
SMALL
GASTEIGER

@<TRIPOS>ATOM
      1 C          62.3679   89.2004   10.8168 C.ar    1  UNL1        0.0295
      2 C          63.0506   90.5027   10.5204 C.ar    1  UNL1        0.0070
      3 C          63.9074   90.8559   11.6999 C.ar    1  UNL1        0.0071
      4 C          63.7543   89.7719   12.7253 C.ar    1  UNL1        0.0354
      5 S          62.8028   88.7487   12.1795 S.2     1  UNL1       -0.0864
      6 O          58.5651   86.3061    7.1889 O.3     1  UNL1       -0.5055
      7 C          59.5158   87.0297    8.0959 C.ar    1  UNL1        0.1337
      8 C          60.4866   86.2549    8.9367 C.ar    1  UNL1        0.0366
      9 C          61.4373   86.9785    9.8437 C.ar    1  UNL1        0.0036
     10 C          61.4172   88.4768    9.9098 C.ar    1  UNL1        0.0062
     11 C          60.4463   89.2516    9.0690 C.ar    1  UNL1        0.0036
     12 C          59.4956   88.5281    8.1620 C.ar    1  UNL1        0.0366
     13 H          58.5777   85.3701    7.1476 H       1  UNL1        0.2922
     14 C          64.7666   92.0785   11.8309 C.ar    1  UNL1        0.0035
     15 C          65.0130   92.9533   10.6377 C.ar    1  UNL1        0.0002
     16 C          65.8722   94.1759   10.7687 C.ar    1  UNL1        0.0031
     17 C          66.4848   94.5236   12.0929 C.ar    1  UNL1        0.0366
     18 C          66.2384   93.6487   13.2862 C.ar    1  UNL1        0.1337
     19 O          66.8511   93.9965   14.6105 O.3     1  UNL1       -0.5055
     20 C          65.3793   92.4262   13.1552 C.ar    1  UNL1        0.0366
     21 H          67.3878   94.7602   14.6923 H       1  UNL1        0.2922
@<TRIPOS>BOND
     1     6     7    1
     2     7     8   ar
     3     8     9   ar
     4     9    10   ar
     5    10     1    1
     6     1     2   ar
     7     2     3   ar
     8     3    14    1
     9    14    15   ar
    10    15    16   ar
    11    16    17   ar
    12    17    18   ar
    13    18    19    1
    14    18    20   ar
    15     3     4   ar
    16     4     5   ar
    17    10    11   ar
    18    11    12   ar
    19    12     7   ar
    20     5     1   ar
    21    20    14   ar
    22     6    13    1
    23    19    21    1
@<TRIPOS>MOLECULE
*****
 21 23 0 0 0
SMALL
GASTEIGER

@<TRIPOS>ATOM
      1 C          62.9582   90.1666   11.9157 C.ar    1  UNL1        0.0295
      2 C          63.0413   89.1879   10.7820 C.ar    1  UNL1        0.0070
      3 C          61.6745   88.6076   10.5693 C.ar    1  UNL1        0.0071
      4 C          60.7466   89.2278   11.5715 C.ar    1  UNL1        0.0354
      5 S          61.5399   90.1912   12.4036 S.2     1  UNL1       -0.0864
      6 O          67.5007   93.4128   14.1129 O.3     1  UNL1       -0.5055
      7 C          66.3650   92.6012   13.5636 C.ar    1  UNL1        0.1337
      8 C          65.8720   92.8490   12.1688 C.ar    1  UNL1        0.0366
      9 C          64.7364   92.0374   11.6195 C.ar    1  UNL1        0.0036
     10 C          64.0938   90.9781   12.4650 C.ar    1  UNL1        0.0062
     11 C          64.5868   90.7304   13.8598 C.ar    1  UNL1        0.0036
     12 C          65.7224   91.5419   14.4091 C.ar    1  UNL1        0.0366
     13 H          67.9021   94.0745   13.5847 H       1  UNL1        0.2922
     14 C          61.3012   87.5866    9.5358 C.ar    1  UNL1        0.0035
     15 C          62.3255   86.6064    9.0457 C.ar    1  UNL1        0.0002
     16 C          61.9522   85.5853    8.0123 C.ar    1  UNL1        0.0031
     17 C          60.5548   85.5445    7.4689 C.ar    1  UNL1        0.0366
     18 C          59.5305   86.5247    7.9589 C.ar    1  UNL1        0.1337
     19 O          58.1330   86.4838    7.4155 O.3     1  UNL1       -0.5055
     20 C          59.9037   87.5457    8.9924 C.ar    1  UNL1        0.0366
     21 H          57.8998   85.8460    6.7699 H       1  UNL1        0.2922
@<TRIPOS>BOND
     1     6     7    1
     2     7     8   ar
     3     8     9   ar
     4     9    10   ar
     5    10     1    1
     6     1     2   ar
     7     2     3   ar
     8     3    14    1
     9    14    15   ar
    10    15    16   ar
    11    16    17   ar
    12    17    18   ar
    13    18    19    1
    14    18    20   ar
    15     3     4   ar
    16     4     5   ar
    17    10    11   ar
    18    11    12   ar
    19    12     7   ar
    20     5     1   ar
    21    20    14   ar
    22     6    13    1
    23    19    21    1
@<TRIPOS>MOLECULE
*****
 21 23 0 0 0
SMALL
GASTEIGER

@<TRIPOS>ATOM
      1 C          61.5797   88.1400   10.3429 C.ar    1  UNL1        0.0295
      2 C          62.8867   88.6688   10.8550 C.ar    1  UNL1        0.0070
      3 C          62.5923   89.6524   11.9486 C.ar    1  UNL1        0.0071
      4 C          61.1033   89.7315   12.1124 C.ar    1  UNL1        0.0354
      5 S          60.4776   88.7968   11.1200 S.2     1  UNL1       -0.0864
      6 O          60.8829   84.1061    5.9563 O.3     1  UNL1       -0.5055
      7 C          61.0571   85.1146    7.0529 C.ar    1  UNL1        0.1337
      8 C          62.3734   85.2311    7.7626 C.ar    1  UNL1        0.0366
      9 C          62.5476   86.2395    8.8592 C.ar    1  UNL1        0.0036
     10 C          61.4055   87.1316    9.2462 C.ar    1  UNL1        0.0062
     11 C          60.0892   87.0151    8.5365 C.ar    1  UNL1        0.0036
     12 C          59.9150   86.0066    7.4399 C.ar    1  UNL1        0.0366
     13 H          61.5964   83.5489    5.7145 H       1  UNL1        0.2922
     14 C          63.6084   90.4218   12.7395 C.ar    1  UNL1        0.0035
     15 C          63.9245   90.0175   14.1489 C.ar    1  UNL1        0.0002
     16 C          64.9406   90.7869   14.9398 C.ar    1  UNL1        0.0031
     17 C          65.6406   91.9604   14.3213 C.ar    1  UNL1        0.0366
     18 C          65.3245   92.3647   12.9119 C.ar    1  UNL1        0.1337
     19 O          66.0245   93.5383   12.2933 O.3     1  UNL1       -0.5055
     20 C          64.3084   91.5954   12.1209 C.ar    1  UNL1        0.0366
     21 H          66.6592   94.0189   12.7874 H       1  UNL1        0.2922
@<TRIPOS>BOND
     1     6     7    1
     2     7     8   ar
     3     8     9   ar
     4     9    10   ar
     5    10     1    1
     6     1     2   ar
     7     2     3   ar
     8     3    14    1
     9    14    15   ar
    10    15    16   ar
    11    16    17   ar
    12    17    18   ar
    13    18    19    1
    14    18    20   ar
    15     3     4   ar
    16     4     5   ar
    17    10    11   ar
    18    11    12   ar
    19    12     7   ar
    20     5     1   ar
    21    20    14   ar
    22     6    13    1
    23    19    21    1
@<TRIPOS>MOLECULE
*****
 21 23 0 0 0
SMALL
GASTEIGER

@<TRIPOS>ATOM
      1 C          61.4604   88.1626   10.3338 C.ar    1  UNL1        0.0295
      2 C          62.6775   88.4860   11.1487 C.ar    1  UNL1        0.0070
      3 C          62.3110   89.5690   12.1196 C.ar    1  UNL1        0.0071
      4 C          60.8673   89.9150   11.9049 C.ar    1  UNL1        0.0354
      5 S          60.3416   89.0457   10.8012 S.2     1  UNL1       -0.0864
      6 O          61.1255   84.0573    5.9710 O.3     1  UNL1       -0.5055
      7 C          61.2092   85.0836    7.0617 C.ar    1  UNL1        0.1337
      8 C          62.4893   85.2678    7.8216 C.ar    1  UNL1        0.0366
      9 C          62.5730   86.2942    8.9123 C.ar    1  UNL1        0.0036
     10 C          61.3767   87.1363    9.2431 C.ar    1  UNL1        0.0062
     11 C          60.0966   86.9521    8.4833 C.ar    1  UNL1        0.0036
     12 C          60.0129   85.9257    7.3926 C.ar    1  UNL1        0.0366
     13 H          61.8729   83.5312    5.7644 H       1  UNL1        0.2922
     14 C          63.2273   90.1960   13.1282 C.ar    1  UNL1        0.0035
     15 C          64.4589   90.9216   12.6736 C.ar    1  UNL1        0.0002
     16 C          65.3753   91.5485   13.6822 C.ar    1  UNL1        0.0031
     17 C          65.0600   91.4499   15.1453 C.ar    1  UNL1        0.0366
     18 C          63.8284   90.7244   15.5999 C.ar    1  UNL1        0.1337
     19 O          63.5131   90.6258   17.0631 O.3     1  UNL1       -0.5055
     20 C          62.9120   90.0974   14.5914 C.ar    1  UNL1        0.0366
     21 H          64.0855   91.0175   17.6931 H       1  UNL1        0.2922
@<TRIPOS>BOND
     1     6     7    1
     2     7     8   ar
     3     8     9   ar
     4     9    10   ar
     5    10     1    1
     6     1     2   ar
     7     2     3   ar
     8     3    14    1
     9    14    15   ar
    10    15    16   ar
    11    16    17   ar
    12    17    18   ar
    13    18    19    1
    14    18    20   ar
    15     3     4   ar
    16     4     5   ar
    17    10    11   ar
    18    11    12   ar
    19    12     7   ar
    20     5     1   ar
    21    20    14   ar
    22     6    13    1
    23    19    21    1
@<TRIPOS>MOLECULE
*****
 21 23 0 0 0
SMALL
GASTEIGER

@<TRIPOS>ATOM
      1 C          63.0828   87.6325   12.3132 C.ar    1  UNL1        0.0295
      2 C          63.4606   86.2527   12.7642 C.ar    1  UNL1        0.0070
      3 C          62.6506   85.2684   11.9737 C.ar    1  UNL1        0.0071
      4 C          61.7720   86.0398   11.0340 C.ar    1  UNL1        0.0354
      5 S          62.0391   87.5009   11.2438 S.2     1  UNL1       -0.0864
      6 O          65.3480   92.7748   14.4169 O.3     1  UNL1       -0.5055
      7 C          64.7817   91.4892   13.8909 C.ar    1  UNL1        0.1337
      8 C          64.8944   90.2326   14.7022 C.ar    1  UNL1        0.0366
      9 C          64.3281   88.9470   14.1762 C.ar    1  UNL1        0.0036
     10 C          63.6491   88.9180   12.8391 C.ar    1  UNL1        0.0062
     11 C          63.5363   90.1747   12.0279 C.ar    1  UNL1        0.0036
     12 C          64.1026   91.4602   12.5538 C.ar    1  UNL1        0.0366
     13 H          65.7722   92.7928   15.2521 H       1  UNL1        0.2922
     14 C          62.7089   83.7749   12.1006 C.ar    1  UNL1        0.0035
     15 C          63.1013   82.9367   10.9202 C.ar    1  UNL1        0.0002
     16 C          63.1595   81.4432   11.0470 C.ar    1  UNL1        0.0031
     17 C          62.8254   80.7880   12.3543 C.ar    1  UNL1        0.0366
     18 C          62.4330   81.6262   13.5347 C.ar    1  UNL1        0.1337
     19 O          62.0989   80.9709   14.8420 O.3     1  UNL1       -0.5055
     20 C          62.3747   83.1197   13.4079 C.ar    1  UNL1        0.0366
     21 H          62.1353   80.0380   14.9212 H       1  UNL1        0.2922
@<TRIPOS>BOND
     1     6     7    1
     2     7     8   ar
     3     8     9   ar
     4     9    10   ar
     5    10     1    1
     6     1     2   ar
     7     2     3   ar
     8     3    14    1
     9    14    15   ar
    10    15    16   ar
    11    16    17   ar
    12    17    18   ar
    13    18    19    1
    14    18    20   ar
    15     3     4   ar
    16     4     5   ar
    17    10    11   ar
    18    11    12   ar
    19    12     7   ar
    20     5     1   ar
    21    20    14   ar
    22     6    13    1
    23    19    21    1
@<TRIPOS>MOLECULE
*****
 21 23 0 0 0
SMALL
GASTEIGER

@<TRIPOS>ATOM
      1 C          63.6404   84.8484   13.8850 C.ar    1  UNL1        0.0295
      2 C          63.5268   86.1003   13.0666 C.ar    1  UNL1        0.0070
      3 C          63.9081   87.2601   13.9381 C.ar    1  UNL1        0.0071
      4 C          64.2574   86.7250   15.2951 C.ar    1  UNL1        0.0354
      5 S          64.0920   85.2345   15.2623 S.2     1  UNL1       -0.0864
      6 O          62.4908   79.2750   11.9834 O.3     1  UNL1       -0.5055
      7 C          62.7782   80.6684   12.4588 C.ar    1  UNL1        0.1337
      8 C          62.5161   81.0424   13.8875 C.ar    1  UNL1        0.0366
      9 C          62.8035   82.4357   14.3629 C.ar    1  UNL1        0.0036
     10 C          63.3530   83.4550   13.4096 C.ar    1  UNL1        0.0062
     11 C          63.6151   83.0811   11.9808 C.ar    1  UNL1        0.0036
     12 C          63.3277   81.6877   11.5054 C.ar    1  UNL1        0.0366
     13 H          62.1475   78.6383   12.5789 H       1  UNL1        0.2922
     14 C          63.9353   88.7018   13.5250 C.ar    1  UNL1        0.0035
     15 C          63.2611   89.1311   12.2557 C.ar    1  UNL1        0.0002
     16 C          63.2883   90.5728   11.8426 C.ar    1  UNL1        0.0031
     17 C          63.9896   91.5852   12.6988 C.ar    1  UNL1        0.0366
     18 C          64.6638   91.1559   13.9680 C.ar    1  UNL1        0.1337
     19 O          65.3652   92.1683   14.8242 O.3     1  UNL1       -0.5055
     20 C          64.6367   89.7142   14.3812 C.ar    1  UNL1        0.0366
     21 H          65.3822   93.0689   14.5662 H       1  UNL1        0.2922
@<TRIPOS>BOND
     1     6     7    1
     2     7     8   ar
     3     8     9   ar
     4     9    10   ar
     5    10     1    1
     6     1     2   ar
     7     2     3   ar
     8     3    14    1
     9    14    15   ar
    10    15    16   ar
    11    16    17   ar
    12    17    18   ar
    13    18    19    1
    14    18    20   ar
    15     3     4   ar
    16     4     5   ar
    17    10    11   ar
    18    11    12   ar
    19    12     7   ar
    20     5     1   ar
    21    20    14   ar
    22     6    13    1
    23    19    21    1
@<TRIPOS>MOLECULE
*****
 21 23 0 0 0
SMALL
GASTEIGER

@<TRIPOS>ATOM
      1 C          62.4123   85.4084   11.8860 C.ar    1  UNL1        0.0295
      2 C          63.0986   86.6701   12.3186 C.ar    1  UNL1        0.0070
      3 C          62.6267   87.7826   11.4300 C.ar    1  UNL1        0.0071
      4 C          61.6487   87.2085   10.4482 C.ar    1  UNL1        0.0354
      5 S          61.5162   85.7412   10.7300 S.2     1  UNL1       -0.0864
      6 O          63.1259   79.9833   14.3475 O.3     1  UNL1       -0.5055
      7 C          62.9475   81.3396   13.7321 C.ar    1  UNL1        0.1337
      8 C          62.7407   82.5394   14.6083 C.ar    1  UNL1        0.0366
      9 C          62.5623   83.8957   13.9929 C.ar    1  UNL1        0.0036
     10 C          62.5907   84.0522   12.5014 C.ar    1  UNL1        0.0062
     11 C          62.7974   82.8524   11.6252 C.ar    1  UNL1        0.0036
     12 C          62.9758   81.4961   12.2406 C.ar    1  UNL1        0.0366
     13 H          63.1082   79.8855   15.2792 H       1  UNL1        0.2922
     14 C          63.0572   89.2173   11.5093 C.ar    1  UNL1        0.0035
     15 C          62.9632   90.0966   10.2977 C.ar    1  UNL1        0.0002
     16 C          63.3937   91.5313   10.3770 C.ar    1  UNL1        0.0031
     17 C          63.9182   92.0867   11.6678 C.ar    1  UNL1        0.0366
     18 C          64.0123   91.2074   12.8794 C.ar    1  UNL1        0.1337
     19 O          64.5368   91.7628   14.1703 O.3     1  UNL1       -0.5055
     20 C          63.5818   89.7727   12.8002 C.ar    1  UNL1        0.0366
     21 H          64.8058   92.6590   14.2198 H       1  UNL1        0.2922
@<TRIPOS>BOND
     1     6     7    1
     2     7     8   ar
     3     8     9   ar
     4     9    10   ar
     5    10     1    1
     6     1     2   ar
     7     2     3   ar
     8     3    14    1
     9    14    15   ar
    10    15    16   ar
    11    16    17   ar
    12    17    18   ar
    13    18    19    1
    14    18    20   ar
    15     3     4   ar
    16     4     5   ar
    17    10    11   ar
    18    11    12   ar
    19    12     7   ar
    20     5     1   ar
    21    20    14   ar
    22     6    13    1
    23    19    21    1
@<TRIPOS>MOLECULE
*****
 21 23 0 0 0
SMALL
GASTEIGER

@<TRIPOS>ATOM
      1 C          63.9068   87.1359   14.2829 C.ar    1  UNL1        0.0295
      2 C          63.5492   86.0080   13.3610 C.ar    1  UNL1        0.0070
      3 C          63.4241   84.7594   14.1828 C.ar    1  UNL1        0.0071
      4 C          63.7045   85.1156   15.6126 C.ar    1  UNL1        0.0354
      5 S          64.0028   86.5843   15.6745 S.2     1  UNL1       -0.0864
      6 O          64.7972   92.8502   12.6848 O.3     1  UNL1       -0.5055
      7 C          64.5746   91.4216   13.0843 C.ar    1  UNL1        0.1337
      8 C          63.6959   90.5377   12.2498 C.ar    1  UNL1        0.0366
      9 C          63.4733   89.1091   12.6493 C.ar    1  UNL1        0.0036
     10 C          64.1294   88.5645   13.8834 C.ar    1  UNL1        0.0062
     11 C          65.0081   89.4485   14.7179 C.ar    1  UNL1        0.0036
     12 C          65.2307   90.8770   14.3184 C.ar    1  UNL1        0.0366
     13 H          64.3873   93.1904   11.9139 H       1  UNL1        0.2922
     14 C          63.0793   83.3943   13.6655 C.ar    1  UNL1        0.0035
     15 C          62.3990   82.4024   14.5619 C.ar    1  UNL1        0.0002
     16 C          62.0542   81.0373   14.0446 C.ar    1  UNL1        0.0031
     17 C          62.3895   80.6641   12.6311 C.ar    1  UNL1        0.0366
     18 C          63.0698   81.6560   11.7347 C.ar    1  UNL1        0.1337
     19 O          63.4051   81.2828   10.3211 O.3     1  UNL1       -0.5055
     20 C          63.4146   83.0211   12.2519 C.ar    1  UNL1        0.0366
     21 H          63.1897   80.4300    9.9980 H       1  UNL1        0.2922
@<TRIPOS>BOND
     1     6     7    1
     2     7     8   ar
     3     8     9   ar
     4     9    10   ar
     5    10     1    1
     6     1     2   ar
     7     2     3   ar
     8     3    14    1
     9    14    15   ar
    10    15    16   ar
    11    16    17   ar
    12    17    18   ar
    13    18    19    1
    14    18    20   ar
    15     3     4   ar
    16     4     5   ar
    17    10    11   ar
    18    11    12   ar
    19    12     7   ar
    20     5     1   ar
    21    20    14   ar
    22     6    13    1
    23    19    21    1
