@<TRIPOS>MOLECULE
*****
 18 19 0 0 0
SMALL
GASTEIGER

@<TRIPOS>ATOM
      1 O          63.4055   86.5988   12.9363 O.2     1  UNL1       -0.2698
      2 C          62.5600   85.6174   12.1801 C.2     1  UNL1        0.2511
      3 N          61.4987   86.1091   11.2410 N.am    1  UNL1       -0.2803
      4 H          60.9437   85.4650   10.7446 H       1  UNL1        0.1552
      5 C          62.7758   84.1443   12.3629 C.ar    1  UNL1        0.0748
      6 C          63.2715   83.3112   11.2183 C.ar    1  UNL1        0.0628
      7 CL         63.5514   83.9511    9.8908 Cl      1  UNL1       -0.0821
      8 C          63.4872   81.8381   11.4011 C.ar    1  UNL1        0.0116
      9 C          63.2073   81.1982   12.7286 C.ar    1  UNL1        0.0017
     10 C          62.7116   82.0313   13.8732 C.ar    1  UNL1        0.0116
     11 C          62.4959   83.5043   13.6903 C.ar    1  UNL1        0.0628
     12 CL         62.0001   84.3375   14.8350 Cl      1  UNL1       -0.0821
     13 C          61.2829   87.5823   11.0582 C.ar    1  UNL1        0.0537
     14 C          60.0195   88.2222   11.5524 C.ar    1  UNL1        0.0353
     15 C          59.8037   89.6953   11.3695 C.ar    1  UNL1        0.1002
     16 N          60.8514   90.5284   10.6926 N.ar    1  UNL1       -0.2422
     17 C          62.1148   89.8885   10.1984 C.ar    1  UNL1        0.1002
     18 C          62.3305   88.4154   10.3812 C.ar    1  UNL1        0.0353
@<TRIPOS>BOND
     1     1     2    2
     2     2     3   am
     3     3    13    1
     4    13    14   ar
     5    14    15   ar
     6    15    16   ar
     7    16    17   ar
     8    17    18   ar
     9     2     5    1
    10     5     6   ar
    11     6     7    1
    12     6     8   ar
    13     8     9   ar
    14     9    10   ar
    15    10    11   ar
    16    11    12    1
    17    18    13   ar
    18    11     5   ar
    19     3     4    1
@<TRIPOS>MOLECULE
*****
 18 19 0 0 0
SMALL
GASTEIGER

@<TRIPOS>ATOM
      1 O          63.4080   86.6000   12.9314 O.2     1  UNL1       -0.2698
      2 C          62.5596   85.6194   12.1773 C.2     1  UNL1        0.2511
      3 N          61.4962   86.1121   11.2411 N.am    1  UNL1       -0.2803
      4 H          60.9394   85.4685   10.7462 H       1  UNL1        0.1552
      5 C          62.7746   84.1461   12.3594 C.ar    1  UNL1        0.0748
      6 C          62.4938   83.5056   13.6864 C.ar    1  UNL1        0.0628
      7 CL         61.9980   84.3383   14.8313 Cl      1  UNL1       -0.0821
      8 C          62.7087   82.0323   13.8685 C.ar    1  UNL1        0.0116
      9 C          63.2045   81.1995   12.7236 C.ar    1  UNL1        0.0017
     10 C          63.4853   81.8401   11.3966 C.ar    1  UNL1        0.0116
     11 C          63.2703   83.3133   11.2146 C.ar    1  UNL1        0.0628
     12 CL         63.5511   83.9539    9.8876 Cl      1  UNL1       -0.0821
     13 C          61.2812   87.5855   11.0590 C.ar    1  UNL1        0.0537
     14 C          60.0181   88.2259   11.5532 C.ar    1  UNL1        0.0353
     15 C          59.8032   89.6991   11.3711 C.ar    1  UNL1        0.1002
     16 N          60.8514   90.5320   10.6947 N.ar    1  UNL1       -0.2422
     17 C          62.1146   89.8917   10.2005 C.ar    1  UNL1        0.1002
     18 C          62.3295   88.4184   10.3826 C.ar    1  UNL1        0.0353
@<TRIPOS>BOND
     1     1     2    2
     2     2     3   am
     3     3    13    1
     4    13    14   ar
     5    14    15   ar
     6    15    16   ar
     7    16    17   ar
     8    17    18   ar
     9     2     5    1
    10     5     6   ar
    11     6     7    1
    12     6     8   ar
    13     8     9   ar
    14     9    10   ar
    15    10    11   ar
    16    11    12    1
    17    18    13   ar
    18    11     5   ar
    19     3     4    1
@<TRIPOS>MOLECULE
*****
 18 19 0 0 0
SMALL
GASTEIGER

@<TRIPOS>ATOM
      1 O          61.6520   86.2043   11.9317 O.2     1  UNL1       -0.2698
      2 C          62.7481   85.4861   12.6617 C.2     1  UNL1        0.2511
      3 N          63.7951   86.2671   13.3990 N.am    1  UNL1       -0.2803
      4 H          64.5145   85.7958   13.8781 H       1  UNL1        0.1552
      5 C          62.7970   83.9869   12.6543 C.ar    1  UNL1        0.0748
      6 C          62.4802   83.2200   13.9039 C.ar    1  UNL1        0.0628
      7 CL         62.1143   83.9523   15.1608 Cl      1  UNL1       -0.0821
      8 C          62.5292   81.7209   13.8965 C.ar    1  UNL1        0.0116
      9 C          62.8951   80.9886   12.6396 C.ar    1  UNL1        0.0017
     10 C          63.2119   81.7555   11.3900 C.ar    1  UNL1        0.0116
     11 C          63.1629   83.2546   11.3974 C.ar    1  UNL1        0.0628
     12 CL         63.4798   84.0216   10.1478 Cl      1  UNL1       -0.0821
     13 C          63.7461   87.7664   13.4063 C.ar    1  UNL1        0.0537
     14 C          63.1805   88.5040   12.2291 C.ar    1  UNL1        0.0353
     15 C          63.1315   90.0032   12.2365 C.ar    1  UNL1        0.1002
     16 N          63.6482   90.7647   13.4211 N.ar    1  UNL1       -0.2422
     17 C          64.2137   90.0270   14.5983 C.ar    1  UNL1        0.1002
     18 C          64.2627   88.5278   14.5909 C.ar    1  UNL1        0.0353
@<TRIPOS>BOND
     1     1     2    2
     2     2     3   am
     3     3    13    1
     4    13    14   ar
     5    14    15   ar
     6    15    16   ar
     7    16    17   ar
     8    17    18   ar
     9     2     5    1
    10     5     6   ar
    11     6     7    1
    12     6     8   ar
    13     8     9   ar
    14     9    10   ar
    15    10    11   ar
    16    11    12    1
    17    18    13   ar
    18    11     5   ar
    19     3     4    1
@<TRIPOS>MOLECULE
*****
 18 19 0 0 0
SMALL
GASTEIGER

@<TRIPOS>ATOM
      1 O          61.6499   86.2508   11.9250 O.2     1  UNL1       -0.2698
      2 C          62.7486   85.5368   12.6551 C.2     1  UNL1        0.2511
      3 N          63.7954   86.3219   13.3885 N.am    1  UNL1       -0.2803
      4 H          64.5165   85.8533   13.8677 H       1  UNL1        0.1552
      5 C          62.8004   84.0377   12.6520 C.ar    1  UNL1        0.0748
      6 C          63.1601   83.3023   11.3951 C.ar    1  UNL1        0.0628
      7 CL         63.4681   84.0661   10.1413 Cl      1  UNL1       -0.0821
      8 C          63.2119   81.8033   11.3919 C.ar    1  UNL1        0.0116
      9 C          62.9040   81.0395   12.6457 C.ar    1  UNL1        0.0017
     10 C          62.5442   81.7749   13.9026 C.ar    1  UNL1        0.0116
     11 C          62.4924   83.2739   13.9057 C.ar    1  UNL1        0.0628
     12 CL         62.1327   84.0094   15.1626 Cl      1  UNL1       -0.0821
     13 C          63.7436   87.8210   13.3916 C.ar    1  UNL1        0.0537
     14 C          63.1775   88.5544   12.2120 C.ar    1  UNL1        0.0353
     15 C          63.1257   90.0535   12.2152 C.ar    1  UNL1        0.1002
     16 N          63.6400   90.8192   13.3981 N.ar    1  UNL1       -0.2422
     17 C          64.2061   90.0858   14.5778 C.ar    1  UNL1        0.1002
     18 C          64.2579   88.5867   14.5745 C.ar    1  UNL1        0.0353
@<TRIPOS>BOND
     1     1     2    2
     2     2     3   am
     3     3    13    1
     4    13    14   ar
     5    14    15   ar
     6    15    16   ar
     7    16    17   ar
     8    17    18   ar
     9     2     5    1
    10     5     6   ar
    11     6     7    1
    12     6     8   ar
    13     8     9   ar
    14     9    10   ar
    15    10    11   ar
    16    11    12    1
    17    18    13   ar
    18    11     5   ar
    19     3     4    1
@<TRIPOS>MOLECULE
*****
 18 19 0 0 0
SMALL
GASTEIGER

@<TRIPOS>ATOM
      1 O          62.2334   89.9343   14.4119 O.2     1  UNL1       -0.2698
      2 C          63.6831   89.8387   14.0388 C.2     1  UNL1        0.2511
      3 N          64.5218   88.7146   14.5705 N.am    1  UNL1       -0.2803
      4 H          65.4733   88.6519   14.3256 H       1  UNL1        0.1552
      5 C          64.2940   90.8672   13.1337 C.ar    1  UNL1        0.0748
      6 C          63.8245   90.9911   11.7145 C.ar    1  UNL1        0.0628
      7 CL         62.7441   90.0865   11.2002 Cl      1  UNL1       -0.0821
      8 C          64.4354   92.0196   10.8096 C.ar    1  UNL1        0.0116
      9 C          65.5158   92.9243   11.3239 C.ar    1  UNL1        0.0017
     10 C          65.9852   92.8004   12.7431 C.ar    1  UNL1        0.0116
     11 C          65.3743   91.7719   13.6480 C.ar    1  UNL1        0.0628
     12 CL         65.8438   91.6479   15.0673 Cl      1  UNL1       -0.0821
     13 C          63.9109   87.6861   15.4755 C.ar    1  UNL1        0.0537
     14 C          63.2111   88.1131   16.7316 C.ar    1  UNL1        0.0353
     15 C          62.6003   87.0846   17.6366 C.ar    1  UNL1        0.1002
     16 N          62.6892   85.6290   17.2854 N.ar    1  UNL1       -0.2422
     17 C          63.3891   85.2019   16.0293 C.ar    1  UNL1        0.1002
     18 C          63.9999   86.2305   15.1244 C.ar    1  UNL1        0.0353
@<TRIPOS>BOND
     1     1     2    2
     2     2     3   am
     3     3    13    1
     4    13    14   ar
     5    14    15   ar
     6    15    16   ar
     7    16    17   ar
     8    17    18   ar
     9     2     5    1
    10     5     6   ar
    11     6     7    1
    12     6     8   ar
    13     8     9   ar
    14     9    10   ar
    15    10    11   ar
    16    11    12    1
    17    18    13   ar
    18    11     5   ar
    19     3     4    1
@<TRIPOS>MOLECULE
*****
 18 19 0 0 0
SMALL
GASTEIGER

@<TRIPOS>ATOM
      1 O          63.2534   85.1651    9.0806 O.2     1  UNL1       -0.2698
      2 C          62.1822   85.8211    9.9005 C.2     1  UNL1        0.2511
      3 N          61.9011   85.3374   11.2923 N.am    1  UNL1       -0.2803
      4 H          61.1981   85.7679   11.8304 H       1  UNL1        0.1552
      5 C          61.3921   86.9607    9.3286 C.ar    1  UNL1        0.0748
      6 C          61.5198   88.3332    9.9200 C.ar    1  UNL1        0.0628
      7 CL         62.4377   88.5662   11.0833 Cl      1  UNL1       -0.0821
      8 C          60.7297   89.4728    9.3482 C.ar    1  UNL1        0.0116
      9 C          59.8118   89.2398    8.1849 C.ar    1  UNL1        0.0017
     10 C          59.6841   87.8673    7.5935 C.ar    1  UNL1        0.0116
     11 C          60.4742   86.7278    8.1654 C.ar    1  UNL1        0.0628
     12 CL         60.3464   85.3551    7.5740 Cl      1  UNL1       -0.0821
     13 C          62.6913   84.1977   11.8641 C.ar    1  UNL1        0.0537
     14 C          62.5143   82.8128   11.3159 C.ar    1  UNL1        0.0353
     15 C          63.3044   81.6732   11.8878 C.ar    1  UNL1        0.1002
     16 N          64.2715   81.9186   13.0079 N.ar    1  UNL1       -0.2422
     17 C          64.4485   83.3036   13.5560 C.ar    1  UNL1        0.1002
     18 C          63.6584   84.4431   12.9842 C.ar    1  UNL1        0.0353
@<TRIPOS>BOND
     1     1     2    2
     2     2     3   am
     3     3    13    1
     4    13    14   ar
     5    14    15   ar
     6    15    16   ar
     7    16    17   ar
     8    17    18   ar
     9     2     5    1
    10     5     6   ar
    11     6     7    1
    12     6     8   ar
    13     8     9   ar
    14     9    10   ar
    15    10    11   ar
    16    11    12    1
    17    18    13   ar
    18    11     5   ar
    19     3     4    1
@<TRIPOS>MOLECULE
*****
 18 19 0 0 0
SMALL
GASTEIGER

@<TRIPOS>ATOM
      1 O          63.9556   88.8804   13.2122 O.2     1  UNL1       -0.2698
      2 C          63.7925   90.3554   12.9939 C.2     1  UNL1        0.2511
      3 N          62.6983   90.8654   12.1037 N.am    1  UNL1       -0.2803
      4 H          62.5913   91.8335   11.9605 H       1  UNL1        0.1552
      5 C          64.7238   91.3205   13.6659 C.ar    1  UNL1        0.0748
      6 C          65.6018   92.2137   12.8406 C.ar    1  UNL1        0.0628
      7 CL         65.5487   92.1419   11.3433 Cl      1  UNL1       -0.0821
      8 C          66.5330   93.1787   13.5126 C.ar    1  UNL1        0.0116
      9 C          66.5861   93.2505   15.0099 C.ar    1  UNL1        0.0017
     10 C          65.7080   92.3574   15.8353 C.ar    1  UNL1        0.0116
     11 C          64.7769   91.3924   15.1633 C.ar    1  UNL1        0.0628
     12 CL         63.8988   90.4991   15.9886 Cl      1  UNL1       -0.0821
     13 C          61.7670   89.9003   11.4317 C.ar    1  UNL1        0.0537
     14 C          60.4022   89.6538   12.0030 C.ar    1  UNL1        0.0353
     15 C          59.4711   88.6888   11.3310 C.ar    1  UNL1        0.1002
     16 N          59.9047   87.9703   10.0877 N.ar    1  UNL1       -0.2422
     17 C          61.2696   88.2168    9.5165 C.ar    1  UNL1        0.1002
     18 C          62.2007   89.1819   10.1885 C.ar    1  UNL1        0.0353
@<TRIPOS>BOND
     1     1     2    2
     2     2     3   am
     3     3    13    1
     4    13    14   ar
     5    14    15   ar
     6    15    16   ar
     7    16    17   ar
     8    17    18   ar
     9     2     5    1
    10     5     6   ar
    11     6     7    1
    12     6     8   ar
    13     8     9   ar
    14     9    10   ar
    15    10    11   ar
    16    11    12    1
    17    18    13   ar
    18    11     5   ar
    19     3     4    1
@<TRIPOS>MOLECULE
*****
 18 19 0 0 0
SMALL
GASTEIGER

@<TRIPOS>ATOM
      1 O          63.1118   85.0371   10.1240 O.2     1  UNL1       -0.2698
      2 C          62.5373   85.3780   11.4671 C.2     1  UNL1        0.2511
      3 N          61.4160   86.3686   11.5736 N.am    1  UNL1       -0.2803
      4 H          61.0389   86.5923   12.4551 H       1  UNL1        0.1552
      5 C          63.0841   84.7282   12.7036 C.ar    1  UNL1        0.0748
      6 C          62.9633   83.2445   12.8872 C.ar    1  UNL1        0.0628
      7 CL         62.2956   82.4103   11.8343 Cl      1  UNL1       -0.0821
      8 C          63.5100   82.5948   14.1236 C.ar    1  UNL1        0.0116
      9 C          64.1777   83.4289   15.1765 C.ar    1  UNL1        0.0017
     10 C          64.2985   84.9127   14.9929 C.ar    1  UNL1        0.0116
     11 C          63.7517   85.5623   13.7565 C.ar    1  UNL1        0.0628
     12 CL         63.8725   87.0462   13.5728 Cl      1  UNL1       -0.0821
     13 C          60.8692   87.0183   10.3371 C.ar    1  UNL1        0.0537
     14 C          60.5023   86.1797    9.1488 C.ar    1  UNL1        0.0353
     15 C          59.9555   86.8294    7.9124 C.ar    1  UNL1        0.1002
     16 N          59.7756   88.3178    7.8642 N.ar    1  UNL1       -0.2422
     17 C          60.1425   89.1565    9.0525 C.ar    1  UNL1        0.1002
     18 C          60.6893   88.5067   10.2889 C.ar    1  UNL1        0.0353
@<TRIPOS>BOND
     1     1     2    2
     2     2     3   am
     3     3    13    1
     4    13    14   ar
     5    14    15   ar
     6    15    16   ar
     7    16    17   ar
     8    17    18   ar
     9     2     5    1
    10     5     6   ar
    11     6     7    1
    12     6     8   ar
    13     8     9   ar
    14     9    10   ar
    15    10    11   ar
    16    11    12    1
    17    18    13   ar
    18    11     5   ar
    19     3     4    1
@<TRIPOS>MOLECULE
*****
 18 19 0 0 0
SMALL
GASTEIGER

@<TRIPOS>ATOM
      1 O          63.0991   85.0380   10.1009 O.2     1  UNL1       -0.2698
      2 C          62.5295   85.3866   11.4441 C.2     1  UNL1        0.2511
      3 N          61.4083   86.3775   11.5490 N.am    1  UNL1       -0.2803
      4 H          61.0344   86.6063   12.4305 H       1  UNL1        0.1552
      5 C          63.0809   84.7441   12.6823 C.ar    1  UNL1        0.0748
      6 C          63.7492   85.5848   13.7294 C.ar    1  UNL1        0.0628
      7 CL         63.8661   87.0680   13.5384 Cl      1  UNL1       -0.0821
      8 C          64.3006   84.9423   14.9676 C.ar    1  UNL1        0.0116
      9 C          64.1838   83.4591   15.1586 C.ar    1  UNL1        0.0017
     10 C          63.5155   82.6184   14.1115 C.ar    1  UNL1        0.0116
     11 C          62.9641   83.2609   12.8733 C.ar    1  UNL1        0.0628
     12 CL         62.2957   82.4202   11.8261 Cl      1  UNL1       -0.0821
     13 C          60.8569   87.0200   10.3107 C.ar    1  UNL1        0.0537
     14 C          60.6610   88.5063   10.2605 C.ar    1  UNL1        0.0353
     15 C          60.1095   89.1486    9.0223 C.ar    1  UNL1        0.1002
     16 N          59.7540   88.3047    7.8343 N.ar    1  UNL1       -0.2422
     17 C          59.9499   86.8185    7.8845 C.ar    1  UNL1        0.1002
     18 C          60.5013   86.1761    9.1227 C.ar    1  UNL1        0.0353
@<TRIPOS>BOND
     1     1     2    2
     2     2     3   am
     3     3    13    1
     4    13    14   ar
     5    14    15   ar
     6    15    16   ar
     7    16    17   ar
     8    17    18   ar
     9     2     5    1
    10     5     6   ar
    11     6     7    1
    12     6     8   ar
    13     8     9   ar
    14     9    10   ar
    15    10    11   ar
    16    11    12    1
    17    18    13   ar
    18    11     5   ar
    19     3     4    1
