@<TRIPOS>MOLECULE
*****
 47 50 0 0 0
SMALL
GASTEIGER

@<TRIPOS>ATOM
      1 N          61.7324   90.0335   11.2542 N.3     1  UNL1       -0.2699
      2 C          63.4294   91.6045   10.0699 C.3     1  UNL1        0.0188
      3 C          62.9670   90.2220   10.4233 C.3     1  UNL1        0.0722
      4 C          60.3829   90.0191   10.5996 C.3     1  UNL1        0.0924
      5 C          60.1324   89.1312    9.4168 C.3     1  UNL1        0.0950
      6 N          60.2023   89.6942    8.0282 N.am    1  UNL1       -0.2706
      7 C          59.2944   89.1651    6.9578 C.2     1  UNL1        0.4020
      8 O          58.3166   88.0730    7.2760 O.2     1  UNL1       -0.2264
      9 H          60.8441   90.4109    7.8193 H       1  UNL1        0.1527
     10 O          59.3643   89.7280    5.5693 O.3     1  UNL1       -0.4274
     11 C          59.4741   91.2101    5.3655 C.3     1  UNL1        0.2621
     12 C          60.3759   91.7557    4.2982 C.ar    1  UNL1        0.1323
     13 N          61.8277   91.4251    4.1167 N.ar    1  UNL1       -0.2374
     14 C          62.3333   92.1927    2.9313 C.ar    1  UNL1        0.1062
     15 C          61.1938   92.9977    2.3801 C.ar    1  UNL1        0.0573
     16 S          59.9841   92.7275    3.2249 S.2     1  UNL1       -0.0666
     17 C          59.8121   87.6803    9.6227 C.3     1  UNL1        0.0474
     18 C          60.9210   86.6797    9.7613 C.ar    1  UNL1       -0.0203
     19 C          61.3021   86.1657   11.1179 C.ar    1  UNL1       -0.0011
     20 C          62.4109   85.1652   11.2566 C.ar    1  UNL1        0.0363
     21 C          63.1387   84.6786   10.0385 C.ar    1  UNL1        0.1337
     22 O          64.2476   83.6780   10.1771 O.3     1  UNL1       -0.5055
     23 C          62.7576   85.1926    8.6818 C.ar    1  UNL1        0.0363
     24 C          61.6487   86.1932    8.5433 C.ar    1  UNL1       -0.0011
     25 H          64.4857   83.3569   11.0246 H       1  UNL1        0.2922
     26 C          61.8474   89.8595   12.7395 C.3     1  UNL1        0.0924
     27 C          63.1953   89.8950   13.3967 C.3     1  UNL1        0.0950
     28 N          63.9990   88.6353   13.5283 N.am    1  UNL1       -0.2706
     29 C          64.0758   87.9293   14.8495 C.2     1  UNL1        0.4020
     30 O          63.3489   88.4828   16.0391 O.2     1  UNL1       -0.2264
     31 H          64.4761   88.2720   12.7476 H       1  UNL1        0.1527
     32 O          64.8794   86.6696   14.9811 O.3     1  UNL1       -0.4291
     33 C          64.2788   85.4618   15.6372 C.3     1  UNL1        0.2447
     34 C          63.8328   84.2984   14.8019 C.ar    1  UNL1        0.0714
     35 C          64.6380   83.6202   13.7334 C.ar    1  UNL1        0.1053
     36 N          63.8063   82.5116   13.1596 N.ar    1  UNL1       -0.2350
     37 C          62.4870   82.5047   13.8735 C.ar    1  UNL1        0.1343
     38 S          62.5035   83.6090   14.8885 S.2     1  UNL1       -0.0652
     39 C          63.7396   91.1903   13.9223 C.3     1  UNL1        0.0474
     40 C          65.2169   91.4487   13.8962 C.ar    1  UNL1       -0.0203
     41 C          65.8726   91.9264   12.6344 C.ar    1  UNL1       -0.0011
     42 C          67.3499   92.1848   12.6083 C.ar    1  UNL1        0.0363
     43 C          68.1716   91.9656   13.8440 C.ar    1  UNL1        0.1337
     44 O          69.6489   92.2241   13.8179 O.3     1  UNL1       -0.5055
     45 C          67.5160   91.4880   15.1057 C.ar    1  UNL1        0.0363
     46 C          66.0386   91.2295   15.1318 C.ar    1  UNL1       -0.0011
     47 H          70.0584   92.5224   13.0297 H       1  UNL1        0.2922
@<TRIPOS>BOND
     1     2     3    1
     2     3     1    1
     3     1    26    1
     4    26    27    1
     5    27    39    1
     6    39    40    1
     7    40    41   ar
     8    41    42   ar
     9    42    43   ar
    10    43    44    1
    11    43    45   ar
    12    45    46   ar
    13    27    28    1
    14    28    29   am
    15    29    30    2
    16    29    32    1
    17    32    33    1
    18    33    34    1
    19    34    35   ar
    20    35    36   ar
    21    36    37   ar
    22    37    38   ar
    23     1     4    1
    24     4     5    1
    25     5    17    1
    26    17    18    1
    27    18    19   ar
    28    19    20   ar
    29    20    21   ar
    30    21    22    1
    31    21    23   ar
    32    23    24   ar
    33     5     6    1
    34     6     7   am
    35     7     8    2
    36     7    10    1
    37    10    11    1
    38    11    12    1
    39    12    13   ar
    40    13    14   ar
    41    14    15   ar
    42    15    16   ar
    43    46    40   ar
    44    38    34   ar
    45    24    18   ar
    46    16    12   ar
    47    44    47    1
    48    28    31    1
    49    22    25    1
    50     6     9    1
@<TRIPOS>MOLECULE
*****
 47 50 0 0 0
SMALL
GASTEIGER

@<TRIPOS>ATOM
      1 N          62.9483   89.9743   12.3041 N.3     1  UNL1       -0.2699
      2 C          63.3583   91.1998   10.0502 C.3     1  UNL1        0.0188
      3 C          63.2472   91.2334   11.5457 C.3     1  UNL1        0.0722
      4 C          62.8751   88.6624   11.5805 C.3     1  UNL1        0.0924
      5 C          61.5627   88.1754   11.0416 C.3     1  UNL1        0.0950
      6 N          60.6944   89.0961   10.2362 N.am    1  UNL1       -0.2706
      7 C          60.2677   88.7052    8.8524 C.2     1  UNL1        0.4020
      8 O          60.7092   87.3936    8.2738 O.2     1  UNL1       -0.2264
      9 H          60.4047   89.9570   10.6160 H       1  UNL1        0.1527
     10 O          59.3995   89.6259    8.0471 O.3     1  UNL1       -0.4274
     11 C          59.2019   89.3790    6.5808 C.3     1  UNL1        0.2621
     12 C          59.3238   90.5126    5.6062 C.ar    1  UNL1        0.1323
     13 N          60.5976   91.0174    4.9958 N.ar    1  UNL1       -0.2374
     14 C          60.2545   92.1573    4.0832 C.ar    1  UNL1        0.1062
     15 C          58.7685   92.3570    4.1296 C.ar    1  UNL1        0.0573
     16 S          58.1934   91.3405    5.0708 S.2     1  UNL1       -0.0666
     17 C          61.1185   86.7677   11.3080 C.3     1  UNL1        0.0474
     18 C          62.0397   85.6217   11.0115 C.ar    1  UNL1       -0.0203
     19 C          62.5853   85.4369    9.6265 C.ar    1  UNL1       -0.0011
     20 C          63.5066   84.2909    9.3301 C.ar    1  UNL1        0.0363
     21 C          63.8823   83.3296   10.4186 C.ar    1  UNL1        0.1337
     22 O          64.8036   82.1836   10.1222 O.3     1  UNL1       -0.5055
     23 C          63.3367   83.5144   11.8036 C.ar    1  UNL1        0.0363
     24 C          62.4154   84.6605   12.1000 C.ar    1  UNL1       -0.0011
     25 H          65.1444   82.0682    9.2570 H       1  UNL1        0.2922
     26 C          62.7227   90.0270   13.7860 C.3     1  UNL1        0.0924
     27 C          63.8625   89.7742   14.7277 C.3     1  UNL1        0.0950
     28 N          65.2196   90.3404   14.4318 N.am    1  UNL1       -0.2706
     29 C          65.6508   91.6275   15.0702 C.2     1  UNL1        0.4020
     30 O          64.7249   92.3483   16.0046 O.2     1  UNL1       -0.2264
     31 H          65.8273   89.8674   13.8185 H       1  UNL1        0.1527
     32 O          67.0079   92.1938   14.7742 O.3     1  UNL1       -0.4291
     33 C          67.5896   92.0668   13.3975 C.3     1  UNL1        0.2447
     34 C          66.9887   92.8322   12.2559 C.ar    1  UNL1        0.0714
     35 C          66.2083   94.1087   12.3639 C.ar    1  UNL1        0.1053
     36 N          65.8000   94.5209   10.9807 N.ar    1  UNL1       -0.2350
     37 C          66.3280   93.4991   10.0177 C.ar    1  UNL1        0.1343
     38 S          67.0626   92.4555   10.8058 S.2     1  UNL1       -0.0652
     39 C          63.6453   88.9550   15.9654 C.3     1  UNL1        0.0474
     40 C          63.6025   87.4583   15.8763 C.ar    1  UNL1       -0.0203
     41 C          62.7035   86.6780   16.7890 C.ar    1  UNL1       -0.0011
     42 C          62.6607   85.1813   16.6999 C.ar    1  UNL1        0.0363
     43 C          63.5169   84.4648   15.6981 C.ar    1  UNL1        0.1337
     44 O          63.4741   82.9681   15.6090 O.3     1  UNL1       -0.5055
     45 C          64.4159   85.2450   14.7854 C.ar    1  UNL1        0.0363
     46 C          64.4587   86.7418   14.8745 C.ar    1  UNL1       -0.0011
     47 H          62.9126   82.4807   16.1791 H       1  UNL1        0.2922
@<TRIPOS>BOND
     1     2     3    1
     2     3     1    1
     3     1    26    1
     4    26    27    1
     5    27    39    1
     6    39    40    1
     7    40    41   ar
     8    41    42   ar
     9    42    43   ar
    10    43    44    1
    11    43    45   ar
    12    45    46   ar
    13    27    28    1
    14    28    29   am
    15    29    30    2
    16    29    32    1
    17    32    33    1
    18    33    34    1
    19    34    35   ar
    20    35    36   ar
    21    36    37   ar
    22    37    38   ar
    23     1     4    1
    24     4     5    1
    25     5    17    1
    26    17    18    1
    27    18    19   ar
    28    19    20   ar
    29    20    21   ar
    30    21    22    1
    31    21    23   ar
    32    23    24   ar
    33     5     6    1
    34     6     7   am
    35     7     8    2
    36     7    10    1
    37    10    11    1
    38    11    12    1
    39    12    13   ar
    40    13    14   ar
    41    14    15   ar
    42    15    16   ar
    43    46    40   ar
    44    38    34   ar
    45    24    18   ar
    46    16    12   ar
    47    44    47    1
    48    28    31    1
    49    22    25    1
    50     6     9    1
@<TRIPOS>MOLECULE
*****
 47 50 0 0 0
SMALL
GASTEIGER

@<TRIPOS>ATOM
      1 N          61.9238   89.3463   11.5440 N.3     1  UNL1       -0.2699
      2 C          59.5788   90.4573   11.6743 C.3     1  UNL1        0.0188
      3 C          60.7265   89.7628   12.3457 C.3     1  UNL1        0.0722
      4 C          61.9035   89.4650   10.0488 C.3     1  UNL1        0.0924
      5 C          60.8201   88.7938    9.2578 C.3     1  UNL1        0.0950
      6 N          60.1539   89.5232    8.1291 N.am    1  UNL1       -0.2706
      7 C          59.3464   88.7640    7.1183 C.2     1  UNL1        0.4020
      8 O          59.2052   87.2754    7.2363 O.2     1  UNL1       -0.2264
      9 H          60.2465   90.5003    8.0516 H       1  UNL1        0.1527
     10 O          58.6802   89.4935    5.9897 O.3     1  UNL1       -0.4274
     11 C          58.7826   90.9872    5.8978 C.3     1  UNL1        0.2621
     12 C          59.5821   91.6179    4.7964 C.ar    1  UNL1        0.1323
     13 N          59.1052   92.6926    3.8649 N.ar    1  UNL1       -0.2374
     14 C          60.2271   93.0234    2.9258 C.ar    1  UNL1        0.1062
     15 C          61.3974   92.1532    3.2770 C.ar    1  UNL1        0.0573
     16 S          60.9987   91.2845    4.4330 S.2     1  UNL1       -0.0666
     17 C          60.4030   87.3931    9.5955 C.3     1  UNL1        0.0474
     18 C          61.4372   86.3157    9.7356 C.ar    1  UNL1       -0.0203
     19 C          61.6626   85.6609   11.0662 C.ar    1  UNL1       -0.0011
     20 C          62.6967   84.5835   11.2063 C.ar    1  UNL1        0.0363
     21 C          63.5056   84.1609   10.0158 C.ar    1  UNL1        0.1337
     22 O          64.5398   83.0835   10.1559 O.3     1  UNL1       -0.5055
     23 C          63.2802   84.8157    8.6852 C.ar    1  UNL1        0.0363
     24 C          62.2460   85.8931    8.5452 C.ar    1  UNL1       -0.0011
     25 H          64.6806   82.6745   10.9871 H       1  UNL1        0.2922
     26 C          63.1415   88.8112   12.2374 C.3     1  UNL1        0.0924
     27 C          63.6132   89.4386   13.5156 C.3     1  UNL1        0.0950
     28 N          63.9451   88.5757   14.6968 N.am    1  UNL1       -0.2706
     29 C          63.0637   88.5944   15.9104 C.2     1  UNL1        0.4020
     30 O          61.8505   89.4759   15.9428 O.2     1  UNL1       -0.2264
     31 H          64.7413   87.9972   14.6756 H       1  UNL1        0.1527
     32 O          63.3955   87.7315   17.0916 O.3     1  UNL1       -0.4291
     33 C          62.8801   86.3246   17.1611 C.3     1  UNL1        0.2447
     34 C          63.3036   85.3190   16.1317 C.ar    1  UNL1        0.0714
     35 C          64.6217   85.2912   15.4164 C.ar    1  UNL1        0.1053
     36 N          64.6161   84.1198   14.4795 N.ar    1  UNL1       -0.2350
     37 C          63.2944   83.4237   14.6157 C.ar    1  UNL1        0.1343
     38 S          62.4832   84.1649   15.6368 S.2     1  UNL1       -0.0652
     39 C          63.7532   90.9290   13.6125 C.3     1  UNL1        0.0474
     40 C          64.7692   91.6431   12.7713 C.ar    1  UNL1       -0.0203
     41 C          66.1057   92.0002   13.3513 C.ar    1  UNL1       -0.0011
     42 C          67.1217   92.7144   12.5101 C.ar    1  UNL1        0.0363
     43 C          66.8012   93.0715   11.0889 C.ar    1  UNL1        0.1337
     44 O          67.8172   93.7857   10.2477 O.3     1  UNL1       -0.5055
     45 C          65.4648   92.7145   10.5089 C.ar    1  UNL1        0.0363
     46 C          64.4487   92.0003   11.3501 C.ar    1  UNL1       -0.0011
     47 H          68.6521   94.0087   10.6100 H       1  UNL1        0.2922
@<TRIPOS>BOND
     1     2     3    1
     2     3     1    1
     3     1    26    1
     4    26    27    1
     5    27    39    1
     6    39    40    1
     7    40    41   ar
     8    41    42   ar
     9    42    43   ar
    10    43    44    1
    11    43    45   ar
    12    45    46   ar
    13    27    28    1
    14    28    29   am
    15    29    30    2
    16    29    32    1
    17    32    33    1
    18    33    34    1
    19    34    35   ar
    20    35    36   ar
    21    36    37   ar
    22    37    38   ar
    23     1     4    1
    24     4     5    1
    25     5    17    1
    26    17    18    1
    27    18    19   ar
    28    19    20   ar
    29    20    21   ar
    30    21    22    1
    31    21    23   ar
    32    23    24   ar
    33     5     6    1
    34     6     7   am
    35     7     8    2
    36     7    10    1
    37    10    11    1
    38    11    12    1
    39    12    13   ar
    40    13    14   ar
    41    14    15   ar
    42    15    16   ar
    43    46    40   ar
    44    38    34   ar
    45    24    18   ar
    46    16    12   ar
    47    44    47    1
    48    28    31    1
    49    22    25    1
    50     6     9    1
@<TRIPOS>MOLECULE
*****
 47 50 0 0 0
SMALL
GASTEIGER

@<TRIPOS>ATOM
      1 N          62.6155   89.8050   11.5930 N.3     1  UNL1       -0.2699
      2 C          63.6557   91.6146   10.0458 C.3     1  UNL1        0.0188
      3 C          62.4492   90.9130   10.5957 C.3     1  UNL1        0.0722
      4 C          62.6386   88.3779   11.1318 C.3     1  UNL1        0.0924
      5 C          61.3851   87.7365   10.6147 C.3     1  UNL1        0.0950
      6 N          60.4979   88.4833    9.6632 N.am    1  UNL1       -0.2706
      7 C          59.9141   87.7806    8.4736 C.2     1  UNL1        0.4020
      8 O          60.2174   86.3311    8.2353 O.2     1  UNL1       -0.2264
      9 H          60.2988   89.4347    9.8196 H       1  UNL1        0.1527
     10 O          59.0269   88.5274    7.5222 O.3     1  UNL1       -0.4274
     11 C          59.6230   89.2471    6.3488 C.3     1  UNL1        0.2621
     12 C          58.8548   90.3435    5.6722 C.ar    1  UNL1        0.1323
     13 N          57.3637   90.5070    5.6753 N.ar    1  UNL1       -0.2374
     14 C          57.0302   91.7335    4.8788 C.ar    1  UNL1        0.1062
     15 C          58.3152   92.3280    4.3835 C.ar    1  UNL1        0.0573
     16 S          59.4428   91.4690    4.8738 S.2     1  UNL1       -0.0666
     17 C          61.0188   86.3482   11.0489 C.3     1  UNL1        0.0474
     18 C          62.0866   85.3078   11.2140 C.ar    1  UNL1       -0.0203
     19 C          62.4506   84.8174   12.5841 C.ar    1  UNL1       -0.0011
     20 C          63.5183   83.7770   12.7491 C.ar    1  UNL1        0.0363
     21 C          64.2221   83.2268   11.5441 C.ar    1  UNL1        0.1337
     22 O          65.2899   82.1863   11.7092 O.3     1  UNL1       -0.5055
     23 C          63.8581   83.7171   10.1740 C.ar    1  UNL1        0.0363
     24 C          62.7903   84.7576   10.0090 C.ar    1  UNL1       -0.0011
     25 H          65.5172   81.8800   12.5650 H       1  UNL1        0.2922
     26 C          62.7588   90.1242   13.0516 C.3     1  UNL1        0.0924
     27 C          64.0658   90.6333   13.5831 C.3     1  UNL1        0.0950
     28 N          64.5369   92.0108   13.2219 N.am    1  UNL1       -0.2706
     29 C          65.9552   92.4145   13.4966 C.2     1  UNL1        0.4020
     30 O          66.9025   91.4407   14.1324 O.2     1  UNL1       -0.2264
     31 H          63.9152   92.6500   12.8046 H       1  UNL1        0.1527
     32 O          66.4262   93.7920   13.1354 O.3     1  UNL1       -0.4291
     33 C          66.0636   94.3841   11.8058 C.3     1  UNL1        0.2447
     34 C          66.8403   94.0060   10.5794 C.ar    1  UNL1        0.0714
     35 C          67.4639   92.6690   10.3082 C.ar    1  UNL1        0.1053
     36 N          68.1388   92.7351    8.9702 N.ar    1  UNL1       -0.2350
     37 C          67.9323   94.1131    8.4146 C.ar    1  UNL1        0.1343
     38 S          67.1299   94.8985    9.4092 S.2     1  UNL1       -0.0652
     39 C          64.9018   89.7648   14.4758 C.3     1  UNL1        0.0474
     40 C          64.2603   88.6605   15.2625 C.ar    1  UNL1       -0.0203
     41 C          63.3768   88.9868   16.4301 C.ar    1  UNL1       -0.0011
     42 C          62.7352   87.8826   17.2168 C.ar    1  UNL1        0.0363
     43 C          62.9771   86.4520   16.8361 C.ar    1  UNL1        0.1337
     44 O          62.3355   85.3478   17.6228 O.3     1  UNL1       -0.5055
     45 C          63.8605   86.1257   15.6686 C.ar    1  UNL1        0.0363
     46 C          64.5021   87.2299   14.8818 C.ar    1  UNL1       -0.0011
     47 H          61.7836   85.5516   18.3521 H       1  UNL1        0.2922
@<TRIPOS>BOND
     1     2     3    1
     2     3     1    1
     3     1    26    1
     4    26    27    1
     5    27    39    1
     6    39    40    1
     7    40    41   ar
     8    41    42   ar
     9    42    43   ar
    10    43    44    1
    11    43    45   ar
    12    45    46   ar
    13    27    28    1
    14    28    29   am
    15    29    30    2
    16    29    32    1
    17    32    33    1
    18    33    34    1
    19    34    35   ar
    20    35    36   ar
    21    36    37   ar
    22    37    38   ar
    23     1     4    1
    24     4     5    1
    25     5    17    1
    26    17    18    1
    27    18    19   ar
    28    19    20   ar
    29    20    21   ar
    30    21    22    1
    31    21    23   ar
    32    23    24   ar
    33     5     6    1
    34     6     7   am
    35     7     8    2
    36     7    10    1
    37    10    11    1
    38    11    12    1
    39    12    13   ar
    40    13    14   ar
    41    14    15   ar
    42    15    16   ar
    43    46    40   ar
    44    38    34   ar
    45    24    18   ar
    46    16    12   ar
    47    44    47    1
    48    28    31    1
    49    22    25    1
    50     6     9    1
@<TRIPOS>MOLECULE
*****
 47 50 0 0 0
SMALL
GASTEIGER

@<TRIPOS>ATOM
      1 N          63.9257   87.3845   15.3076 N.3     1  UNL1       -0.2699
      2 C          62.7847   87.3912   17.6417 C.3     1  UNL1        0.0188
      3 C          63.3120   88.1363   16.4514 C.3     1  UNL1        0.0722
      4 C          64.2667   88.1022   14.0353 C.3     1  UNL1        0.0924
      5 C          64.0643   89.5849   13.9331 C.3     1  UNL1        0.0950
      6 N          65.2324   90.5136   14.0854 N.am    1  UNL1       -0.2706
      7 C          65.2113   91.5783   15.1418 C.2     1  UNL1        0.4020
      8 O          64.0221   91.7144   16.0458 O.2     1  UNL1       -0.2264
      9 H          66.0129   90.4243   13.4921 H       1  UNL1        0.1527
     10 O          66.3793   92.5069   15.2940 O.3     1  UNL1       -0.4274
     11 C          66.5333   93.6767   14.3677 C.3     1  UNL1        0.2621
     12 C          66.6581   93.4518   12.8900 C.ar    1  UNL1        0.1323
     13 N          67.3194   92.2786   12.2294 N.ar    1  UNL1       -0.2374
     14 C          67.2136   92.4623   10.7445 C.ar    1  UNL1        0.1062
     15 C          66.4869   93.7491   10.4873 C.ar    1  UNL1        0.0573
     16 S          66.1436   94.3606   11.8133 S.2     1  UNL1       -0.0666
     17 C          62.6938   90.1390   13.6787 C.3     1  UNL1        0.0474
     18 C          62.0804   90.0257   12.3146 C.ar    1  UNL1       -0.0203
     19 C          62.9332   90.1949   11.0923 C.ar    1  UNL1       -0.0011
     20 C          62.3197   90.0816    9.7282 C.ar    1  UNL1        0.0363
     21 C          60.8534   89.7989    9.5864 C.ar    1  UNL1        0.1337
     22 O          60.2399   89.6856    8.2223 O.3     1  UNL1       -0.5055
     23 C          60.0006   89.6297   10.8087 C.ar    1  UNL1        0.0363
     24 C          60.6141   89.7430   12.1728 C.ar    1  UNL1       -0.0011
     25 H          60.7727   89.7913    7.4588 H       1  UNL1        0.2922
     26 C          64.1983   85.9151   15.4361 C.3     1  UNL1        0.0924
     27 C          63.2205   84.9199   14.8853 C.3     1  UNL1        0.0950
     28 N          62.1908   85.3548   13.8850 N.am    1  UNL1       -0.2706
     29 C          62.5027   85.3074   12.4186 C.2     1  UNL1        0.4020
     30 O          63.8444   84.8251   11.9524 O.2     1  UNL1       -0.2264
     31 H          61.3102   85.6714   14.1909 H       1  UNL1        0.1527
     32 O          61.4731   85.7422   11.4183 O.3     1  UNL1       -0.4291
     33 C          61.8866   86.5288   10.2098 C.3     1  UNL1        0.2447
     34 C          61.7139   85.9441    8.8393 C.ar    1  UNL1        0.0714
     35 C          60.4727   86.0159    8.0000 C.ar    1  UNL1        0.1053
     36 N          60.7438   85.3012    6.7094 N.ar    1  UNL1       -0.2350
     37 C          62.1526   84.7877    6.7510 C.ar    1  UNL1        0.1343
     38 S          62.7521   85.1850    8.0673 S.2     1  UNL1       -0.0652
     39 C          63.2723   83.4898   15.3348 C.3     1  UNL1        0.0474
     40 C          63.0952   82.3833   14.3377 C.ar    1  UNL1       -0.0203
     41 C          64.1286   82.1600   13.2736 C.ar    1  UNL1       -0.0011
     42 C          63.9515   81.0535   12.2765 C.ar    1  UNL1        0.0363
     43 C          62.7410   80.1702   12.3434 C.ar    1  UNL1        0.1337
     44 O          62.5638   79.0638   11.3463 O.3     1  UNL1       -0.5055
     45 C          61.7076   80.3935   13.4075 C.ar    1  UNL1        0.0363
     46 C          61.8847   81.5000   14.4047 C.ar    1  UNL1       -0.0011
     47 H          63.2094   78.9243   10.6816 H       1  UNL1        0.2922
@<TRIPOS>BOND
     1     2     3    1
     2     3     1    1
     3     1    26    1
     4    26    27    1
     5    27    39    1
     6    39    40    1
     7    40    41   ar
     8    41    42   ar
     9    42    43   ar
    10    43    44    1
    11    43    45   ar
    12    45    46   ar
    13    27    28    1
    14    28    29   am
    15    29    30    2
    16    29    32    1
    17    32    33    1
    18    33    34    1
    19    34    35   ar
    20    35    36   ar
    21    36    37   ar
    22    37    38   ar
    23     1     4    1
    24     4     5    1
    25     5    17    1
    26    17    18    1
    27    18    19   ar
    28    19    20   ar
    29    20    21   ar
    30    21    22    1
    31    21    23   ar
    32    23    24   ar
    33     5     6    1
    34     6     7   am
    35     7     8    2
    36     7    10    1
    37    10    11    1
    38    11    12    1
    39    12    13   ar
    40    13    14   ar
    41    14    15   ar
    42    15    16   ar
    43    46    40   ar
    44    38    34   ar
    45    24    18   ar
    46    16    12   ar
    47    44    47    1
    48    28    31    1
    49    22    25    1
    50     6     9    1
@<TRIPOS>MOLECULE
*****
 47 50 0 0 0
SMALL
GASTEIGER

@<TRIPOS>ATOM
      1 N          62.4909   87.7689   12.3531 N.3     1  UNL1       -0.2699
      2 C          62.3672   85.2264   11.8333 C.3     1  UNL1        0.0188
      3 C          61.6815   86.5423   12.0532 C.3     1  UNL1        0.0722
      4 C          61.9066   89.1298   12.1153 C.3     1  UNL1        0.0924
      5 C          61.5752   89.5705   10.7204 C.3     1  UNL1        0.0950
      6 N          62.4700   90.5411   10.0080 N.am    1  UNL1       -0.2706
      7 C          63.4682   91.3489   10.7832 C.2     1  UNL1        0.4020
      8 O          63.5718   91.1861   12.2707 O.2     1  UNL1       -0.2264
      9 H          62.4020   90.6480    9.0317 H       1  UNL1        0.1527
     10 O          64.3628   92.3195   10.0708 O.3     1  UNL1       -0.4274
     11 C          65.6597   92.7416   10.6954 C.3     1  UNL1        0.2621
     12 C          66.2848   94.0507   10.3140 C.ar    1  UNL1        0.1323
     13 N          67.1920   94.2866    9.1430 N.ar    1  UNL1       -0.2374
     14 C          67.5803   95.7355    9.1419 C.ar    1  UNL1        0.1062
     15 C          66.9131   96.3950   10.3123 C.ar    1  UNL1        0.0573
     16 S          66.1124   95.3538   11.0367 S.2     1  UNL1       -0.0666
     17 C          60.3492   89.0405   10.0377 C.3     1  UNL1        0.0474
     18 C          60.4559   87.8678    9.1086 C.ar    1  UNL1       -0.0203
     19 C          59.2623   87.4312    8.3118 C.ar    1  UNL1       -0.0011
     20 C          59.3690   86.2584    7.3827 C.ar    1  UNL1        0.0363
     21 C          60.6693   85.5223    7.2503 C.ar    1  UNL1        0.1337
     22 O          60.7760   84.3496    6.3212 O.3     1  UNL1       -0.5055
     23 C          61.8628   85.9590    8.0470 C.ar    1  UNL1        0.0363
     24 C          61.7561   87.1318    8.9762 C.ar    1  UNL1       -0.0011
     25 H          60.0304   84.0768    5.8235 H       1  UNL1        0.2922
     26 C          63.8848   87.6348   12.8908 C.3     1  UNL1        0.0924
     27 C          64.1924   88.0672   14.2937 C.3     1  UNL1        0.0950
     28 N          64.4179   89.5184   14.5988 N.am    1  UNL1       -0.2706
     29 C          63.4539   90.2587   15.4779 C.2     1  UNL1        0.4020
     30 O          62.2643   89.5477   16.0518 O.2     1  UNL1       -0.2264
     31 H          65.1986   89.9851   14.2221 H       1  UNL1        0.1527
     32 O          63.6794   91.7099   15.7830 O.3     1  UNL1       -0.4291
     33 C          64.9409   92.1451   16.4678 C.3     1  UNL1        0.2447
     34 C          66.1575   92.4798   15.6567 C.ar    1  UNL1        0.0714
     35 C          66.1739   92.8475   14.2025 C.ar    1  UNL1        0.1053
     36 N          67.5978   93.1006   13.8044 N.ar    1  UNL1       -0.2350
     37 C          68.4614   92.8893   15.0125 C.ar    1  UNL1        0.1343
     38 S          67.5713   92.5056   16.1573 S.2     1  UNL1       -0.0652
     39 C          64.2745   87.0484   15.3917 C.3     1  UNL1        0.0474
     40 C          63.9994   85.6038   15.0963 C.ar    1  UNL1       -0.0203
     41 C          64.9899   84.7972   14.3100 C.ar    1  UNL1       -0.0011
     42 C          64.7149   83.3525   14.0147 C.ar    1  UNL1        0.0363
     43 C          63.4493   82.7144   14.5057 C.ar    1  UNL1        0.1337
     44 O          63.1742   81.2697   14.2104 O.3     1  UNL1       -0.5055
     45 C          62.4588   83.5209   15.2920 C.ar    1  UNL1        0.0363
     46 C          62.7338   84.9656   15.5873 C.ar    1  UNL1       -0.0011
     47 H          63.7930   80.7659   13.7192 H       1  UNL1        0.2922
@<TRIPOS>BOND
     1     2     3    1
     2     3     1    1
     3     1    26    1
     4    26    27    1
     5    27    39    1
     6    39    40    1
     7    40    41   ar
     8    41    42   ar
     9    42    43   ar
    10    43    44    1
    11    43    45   ar
    12    45    46   ar
    13    27    28    1
    14    28    29   am
    15    29    30    2
    16    29    32    1
    17    32    33    1
    18    33    34    1
    19    34    35   ar
    20    35    36   ar
    21    36    37   ar
    22    37    38   ar
    23     1     4    1
    24     4     5    1
    25     5    17    1
    26    17    18    1
    27    18    19   ar
    28    19    20   ar
    29    20    21   ar
    30    21    22    1
    31    21    23   ar
    32    23    24   ar
    33     5     6    1
    34     6     7   am
    35     7     8    2
    36     7    10    1
    37    10    11    1
    38    11    12    1
    39    12    13   ar
    40    13    14   ar
    41    14    15   ar
    42    15    16   ar
    43    46    40   ar
    44    38    34   ar
    45    24    18   ar
    46    16    12   ar
    47    44    47    1
    48    28    31    1
    49    22    25    1
    50     6     9    1
@<TRIPOS>MOLECULE
*****
 47 50 0 0 0
SMALL
GASTEIGER

@<TRIPOS>ATOM
      1 N          62.9436   89.3814   11.7890 N.3     1  UNL1       -0.2699
      2 C          62.9915   91.3196   10.0596 C.3     1  UNL1        0.0188
      3 C          63.0554   89.8534   10.3697 C.3     1  UNL1        0.0722
      4 C          62.6941   87.9311   12.0797 C.3     1  UNL1        0.0924
      5 C          61.9420   87.0872   11.0938 C.3     1  UNL1        0.0950
      6 N          62.6490   85.9932   10.3498 N.am    1  UNL1       -0.2706
      7 C          62.8799   84.6658   11.0090 C.2     1  UNL1        0.4020
      8 O          62.4039   84.4322   12.4121 O.2     1  UNL1       -0.2264
      9 H          62.9615   86.1465    9.4289 H       1  UNL1        0.1527
     10 O          63.5869   83.5719   10.2650 O.3     1  UNL1       -0.4274
     11 C          64.3965   82.5563   11.0154 C.3     1  UNL1        0.2621
     12 C          63.7493   81.7171   12.0770 C.ar    1  UNL1        0.1323
     13 N          64.0174   81.7986   13.5506 N.ar    1  UNL1       -0.2374
     14 C          63.1542   80.7810   14.2358 C.ar    1  UNL1        0.1062
     15 C          62.3526   80.0707   13.1855 C.ar    1  UNL1        0.0573
     16 S          62.7204   80.6492   11.8514 S.2     1  UNL1       -0.0666
     17 C          60.4829   87.3371   10.8518 C.3     1  UNL1        0.0474
     18 C          60.0273   87.9113    9.5431 C.ar    1  UNL1       -0.0203
     19 C          60.1609   89.3824    9.2824 C.ar    1  UNL1       -0.0011
     20 C          59.7052   89.9566    7.9737 C.ar    1  UNL1        0.0363
     21 C          59.1159   89.0596    6.9257 C.ar    1  UNL1        0.1337
     22 O          58.6603   89.6338    5.6170 O.3     1  UNL1       -0.5055
     23 C          58.9823   87.5885    7.1864 C.ar    1  UNL1        0.0363
     24 C          59.4380   87.0144    8.4952 C.ar    1  UNL1       -0.0011
     25 H          58.7438   90.5527    5.4542 H       1  UNL1        0.2922
     26 C          63.0812   90.3597   12.9177 C.3     1  UNL1        0.0924
     27 C          64.4433   90.7928   13.3730 C.3     1  UNL1        0.0950
     28 N          65.1620   91.8918   12.6482 N.am    1  UNL1       -0.2706
     29 C          65.8461   92.9789   13.4229 C.2     1  UNL1        0.4020
     30 O          65.8115   92.9669   14.9225 O.2     1  UNL1       -0.2264
     31 H          65.1848   91.8997   11.6640 H       1  UNL1        0.1527
     32 O          66.5649   94.0780   12.6982 O.3     1  UNL1       -0.4291
     33 C          66.2356   94.3715   11.2645 C.3     1  UNL1        0.2447
     34 C          67.0857   93.8014   10.1679 C.ar    1  UNL1        0.0714
     35 C          67.3881   94.4594    8.8542 C.ar    1  UNL1        0.1053
     36 N          68.2718   93.5380    8.0668 N.ar    1  UNL1       -0.2350
     37 C          68.5156   92.3105    8.8939 C.ar    1  UNL1        0.1343
     38 S          67.7825   92.4733   10.1924 S.2     1  UNL1       -0.0652
     39 C          65.0865   90.1267   14.5531 C.3     1  UNL1        0.0474
     40 C          64.3572   89.0451   15.2935 C.ar    1  UNL1       -0.0203
     41 C          63.4294   89.4001   16.4175 C.ar    1  UNL1       -0.0011
     42 C          62.7001   88.3185   17.1580 C.ar    1  UNL1        0.0363
     43 C          62.8985   86.8820   16.7745 C.ar    1  UNL1        0.1337
     44 O          62.1692   85.8004   17.5149 O.3     1  UNL1       -0.5055
     45 C          63.8263   86.5270   15.6506 C.ar    1  UNL1        0.0363
     46 C          64.5557   87.6086   14.9101 C.ar    1  UNL1       -0.0011
     47 H          61.5897   86.0221   18.2170 H       1  UNL1        0.2922
@<TRIPOS>BOND
     1     2     3    1
     2     3     1    1
     3     1    26    1
     4    26    27    1
     5    27    39    1
     6    39    40    1
     7    40    41   ar
     8    41    42   ar
     9    42    43   ar
    10    43    44    1
    11    43    45   ar
    12    45    46   ar
    13    27    28    1
    14    28    29   am
    15    29    30    2
    16    29    32    1
    17    32    33    1
    18    33    34    1
    19    34    35   ar
    20    35    36   ar
    21    36    37   ar
    22    37    38   ar
    23     1     4    1
    24     4     5    1
    25     5    17    1
    26    17    18    1
    27    18    19   ar
    28    19    20   ar
    29    20    21   ar
    30    21    22    1
    31    21    23   ar
    32    23    24   ar
    33     5     6    1
    34     6     7   am
    35     7     8    2
    36     7    10    1
    37    10    11    1
    38    11    12    1
    39    12    13   ar
    40    13    14   ar
    41    14    15   ar
    42    15    16   ar
    43    46    40   ar
    44    38    34   ar
    45    24    18   ar
    46    16    12   ar
    47    44    47    1
    48    28    31    1
    49    22    25    1
    50     6     9    1
@<TRIPOS>MOLECULE
*****
 47 50 0 0 0
SMALL
GASTEIGER

@<TRIPOS>ATOM
      1 N          63.8424   87.2444   15.4979 N.3     1  UNL1       -0.2699
      2 C          62.7730   87.1630   17.8643 C.3     1  UNL1        0.0188
      3 C          63.1746   87.9409   16.6462 C.3     1  UNL1        0.0722
      4 C          64.1081   85.7697   15.5672 C.3     1  UNL1        0.0924
      5 C          63.1291   84.8025   14.9705 C.3     1  UNL1        0.0950
      6 N          62.1361   85.2740   13.9499 N.am    1  UNL1       -0.2706
      7 C          62.5086   85.3001   12.4972 C.2     1  UNL1        0.4020
      8 O          63.8741   84.8546   12.0649 O.2     1  UNL1       -0.2264
      9 H          61.2398   85.5664   14.2336 H       1  UNL1        0.1527
     10 O          61.5155   85.7716   11.4767 O.3     1  UNL1       -0.4274
     11 C          61.9799   86.5529   10.2833 C.3     1  UNL1        0.2621
     12 C          61.8743   85.9585    8.9103 C.ar    1  UNL1        0.1323
     13 N          62.9565   85.2137    8.1863 N.ar    1  UNL1       -0.2374
     14 C          62.4189   84.7993    6.8486 C.ar    1  UNL1        0.1062
     15 C          61.0045   85.2880    6.7459 C.ar    1  UNL1        0.0573
     16 S          60.6679   86.0044    8.0201 S.2     1  UNL1       -0.0666
     17 C          63.1432   83.3636   15.3943 C.3     1  UNL1        0.0474
     18 C          63.0060   82.2782   14.3682 C.ar    1  UNL1       -0.0203
     19 C          64.0495   82.1169   13.3028 C.ar    1  UNL1       -0.0011
     20 C          63.9122   81.0314   12.2768 C.ar    1  UNL1        0.0363
     21 C          62.7314   80.1072   12.3161 C.ar    1  UNL1        0.1337
     22 O          62.5941   79.0217   11.2900 O.3     1  UNL1       -0.5055
     23 C          61.6879   80.2684   13.3815 C.ar    1  UNL1        0.0363
     24 C          61.8252   81.3540   14.4076 C.ar    1  UNL1       -0.0011
     25 H          63.2459   78.9209   10.6245 H       1  UNL1        0.2922
     26 C          64.2447   88.0225   14.2803 C.3     1  UNL1        0.0924
     27 C          64.0519   89.5096   14.2429 C.3     1  UNL1        0.0950
     28 N          65.2112   90.4231   14.5101 N.am    1  UNL1       -0.2706
     29 C          65.0559   91.5740   15.4594 C.2     1  UNL1        0.4020
     30 O          63.7413   91.8115   16.1416 O.2     1  UNL1       -0.2264
     31 H          66.0741   90.2672   14.0624 H       1  UNL1        0.1527
     32 O          66.2152   92.4875   15.7266 O.3     1  UNL1       -0.4291
     33 C          66.6145   93.5111   14.7054 C.3     1  UNL1        0.2447
     34 C          66.8411   93.1002   13.2806 C.ar    1  UNL1        0.0714
     35 C          67.9218   92.1837   12.7886 C.ar    1  UNL1        0.1053
     36 N          67.7756   92.0507   11.3017 N.ar    1  UNL1       -0.2350
     37 C          66.6044   92.8852   10.8748 C.ar    1  UNL1        0.1343
     38 S          66.0270   93.5338   12.0978 S.2     1  UNL1       -0.0652
     39 C          62.6997   90.0831   13.9384 C.3     1  UNL1        0.0474
     40 C          62.1495   90.0076   12.5450 C.ar    1  UNL1       -0.0203
     41 C          60.7015   89.6821   12.3271 C.ar    1  UNL1       -0.0011
     42 C          60.1512   89.6066   10.9337 C.ar    1  UNL1        0.0363
     43 C          61.0489   89.8565    9.7583 C.ar    1  UNL1        0.1337
     44 O          60.4987   89.7809    8.3649 O.3     1  UNL1       -0.5055
     45 C          62.4969   90.1819    9.9762 C.ar    1  UNL1        0.0363
     46 C          63.0472   90.2575   11.3696 C.ar    1  UNL1       -0.0011
     47 H          59.5942   89.5776    8.2288 H       1  UNL1        0.2922
@<TRIPOS>BOND
     1     2     3    1
     2     3     1    1
     3     1    26    1
     4    26    27    1
     5    27    39    1
     6    39    40    1
     7    40    41   ar
     8    41    42   ar
     9    42    43   ar
    10    43    44    1
    11    43    45   ar
    12    45    46   ar
    13    27    28    1
    14    28    29   am
    15    29    30    2
    16    29    32    1
    17    32    33    1
    18    33    34    1
    19    34    35   ar
    20    35    36   ar
    21    36    37   ar
    22    37    38   ar
    23     1     4    1
    24     4     5    1
    25     5    17    1
    26    17    18    1
    27    18    19   ar
    28    19    20   ar
    29    20    21   ar
    30    21    22    1
    31    21    23   ar
    32    23    24   ar
    33     5     6    1
    34     6     7   am
    35     7     8    2
    36     7    10    1
    37    10    11    1
    38    11    12    1
    39    12    13   ar
    40    13    14   ar
    41    14    15   ar
    42    15    16   ar
    43    46    40   ar
    44    38    34   ar
    45    24    18   ar
    46    16    12   ar
    47    44    47    1
    48    28    31    1
    49    22    25    1
    50     6     9    1
@<TRIPOS>MOLECULE
*****
 47 50 0 0 0
SMALL
GASTEIGER

@<TRIPOS>ATOM
      1 N          62.0151   89.8087   11.7504 N.3     1  UNL1       -0.2699
      2 C          59.4820   90.3449   11.5357 C.3     1  UNL1        0.0188
      3 C          60.6214   89.7393   12.3006 C.3     1  UNL1        0.0722
      4 C          62.5767   88.6494   10.9820 C.3     1  UNL1        0.0924
      5 C          62.2222   87.2462   11.3760 C.3     1  UNL1        0.0950
      6 N          62.9700   86.5669   12.4849 N.am    1  UNL1       -0.2706
      7 C          62.9944   85.0693   12.5655 C.2     1  UNL1        0.4020
      8 O          62.2712   84.2509   11.5373 O.2     1  UNL1       -0.2264
      9 H          63.4447   87.1040   13.1597 H       1  UNL1        0.1527
     10 O          63.7422   84.3900   13.6743 O.3     1  UNL1       -0.4274
     11 C          63.0081   83.5193   14.6506 C.3     1  UNL1        0.2621
     12 C          62.5123   82.1689   14.2257 C.ar    1  UNL1        0.1323
     13 N          61.1410   81.6145   14.4751 N.ar    1  UNL1       -0.2374
     14 C          61.0820   80.2387   13.8804 C.ar    1  UNL1        0.1062
     15 C          62.4169   79.9428   13.2635 C.ar    1  UNL1        0.0573
     16 S          63.3009   81.1357   13.4770 S.2     1  UNL1       -0.0666
     17 C          61.1200   86.5222   10.6613 C.3     1  UNL1        0.0474
     18 C          61.3516   85.9755    9.2838 C.ar    1  UNL1       -0.0203
     19 C          62.6987   85.4325    8.9091 C.ar    1  UNL1       -0.0011
     20 C          62.9304   84.8858    7.5317 C.ar    1  UNL1        0.0363
     21 C          61.8149   84.8822    6.5288 C.ar    1  UNL1        0.1337
     22 O          62.0466   84.3355    5.1513 O.3     1  UNL1       -0.5055
     23 C          60.4678   85.4252    6.9034 C.ar    1  UNL1        0.0363
     24 C          60.2361   85.9719    8.2810 C.ar    1  UNL1       -0.0011
     25 H          62.8881   83.9963    4.9173 H       1  UNL1        0.2922
     26 C          62.8471   91.0376   11.9685 C.3     1  UNL1        0.0924
     27 C          64.1151   90.9531   12.7654 C.3     1  UNL1        0.0950
     28 N          64.8752   92.2022   13.1000 N.am    1  UNL1       -0.2706
     29 C          65.7562   92.8429   12.0687 C.2     1  UNL1        0.4020
     30 O          65.8769   92.2346   10.7030 O.2     1  UNL1       -0.2264
     31 H          64.7960   92.6014   13.9964 H       1  UNL1        0.1527
     32 O          66.5163   94.0920   12.4033 O.3     1  UNL1       -0.4291
     33 C          66.1273   95.3976   11.7756 C.3     1  UNL1        0.2447
     34 C          66.4441   95.6601   10.3331 C.ar    1  UNL1        0.0714
     35 C          67.5251   94.9961    9.5328 C.ar    1  UNL1        0.1053
     36 N          67.4847   95.5583    8.1428 N.ar    1  UNL1       -0.2350
     37 C          66.3786   96.5699    8.0839 C.ar    1  UNL1        0.1343
     38 S          65.7355   96.6328    9.4376 S.2     1  UNL1       -0.0652
     39 C          64.6228   89.6195   13.2278 C.3     1  UNL1        0.0474
     40 C          64.1323   89.0372   14.5202 C.ar    1  UNL1       -0.0203
     41 C          64.3311   87.5788   14.8091 C.ar    1  UNL1       -0.0011
     42 C          63.8405   86.9965   16.1015 C.ar    1  UNL1        0.0363
     43 C          63.1512   87.8726   17.1050 C.ar    1  UNL1        0.1337
     44 O          62.6607   87.2904   18.3974 O.3     1  UNL1       -0.5055
     45 C          62.9524   89.3311   16.8162 C.ar    1  UNL1        0.0363
     46 C          63.4430   89.9134   15.5238 C.ar    1  UNL1       -0.0011
     47 H          62.7848   86.3793   18.5778 H       1  UNL1        0.2922
@<TRIPOS>BOND
     1     2     3    1
     2     3     1    1
     3     1    26    1
     4    26    27    1
     5    27    39    1
     6    39    40    1
     7    40    41   ar
     8    41    42   ar
     9    42    43   ar
    10    43    44    1
    11    43    45   ar
    12    45    46   ar
    13    27    28    1
    14    28    29   am
    15    29    30    2
    16    29    32    1
    17    32    33    1
    18    33    34    1
    19    34    35   ar
    20    35    36   ar
    21    36    37   ar
    22    37    38   ar
    23     1     4    1
    24     4     5    1
    25     5    17    1
    26    17    18    1
    27    18    19   ar
    28    19    20   ar
    29    20    21   ar
    30    21    22    1
    31    21    23   ar
    32    23    24   ar
    33     5     6    1
    34     6     7   am
    35     7     8    2
    36     7    10    1
    37    10    11    1
    38    11    12    1
    39    12    13   ar
    40    13    14   ar
    41    14    15   ar
    42    15    16   ar
    43    46    40   ar
    44    38    34   ar
    45    24    18   ar
    46    16    12   ar
    47    44    47    1
    48    28    31    1
    49    22    25    1
    50     6     9    1
