@<TRIPOS>MOLECULE
*****
 30 33 0 0 0
SMALL
GASTEIGER

@<TRIPOS>ATOM
      1 C          61.1961   88.1848    9.4248 C.3     1  UNL1        0.2278
      2 O          60.4194   87.3401    8.4587 O.3     1  UNL1       -0.3250
      3 C          59.5990   88.2551    7.5987 C.3     1  UNL1        0.1773
      4 C          59.8686   89.6652    8.0332 C.3     1  UNL1        0.1773
      5 O          60.8557   89.6217    9.1618 O.3     1  UNL1       -0.3250
      6 C          64.2819   89.2080   14.3802 C.3     1  UNL1        0.0044
      7 C          64.7425   90.4609   13.6959 C.3     1  UNL1        0.0186
      8 C          65.4692   90.5948   15.0014 C.3     1  UNL1        0.0044
      9 C          65.4555   91.7602   13.4650 C.3     1  UNL1        0.0044
     10 C          65.2819   92.4906   12.1664 C.3     1  UNL1        0.0044
     11 C          64.3953   91.9216   11.0986 C.3     1  UNL1        0.0186
     12 C          64.8560   93.1744   10.4143 C.3     1  UNL1        0.0044
     13 C          63.6687   91.7876    9.7932 C.3     1  UNL1        0.0044
     14 C          63.6823   90.6222   11.3295 C.ar    1  UNL1       -0.0269
     15 C          62.7957   90.0532   10.2617 C.ar    1  UNL1       -0.0039
     16 C          62.0827   88.7538   10.4926 C.ar    1  UNL1        0.0323
     17 C          62.2563   88.0235   11.7912 C.ar    1  UNL1        0.0004
     18 C          63.1429   88.5925   12.8590 C.ar    1  UNL1       -0.0048
     19 C          63.8559   89.8918   12.6281 C.ar    1  UNL1       -0.0268
     20 C          61.7219   86.8668    9.9110 C.ar    1  UNL1        0.0326
     21 C          61.2344   86.2981   11.2106 C.ar    1  UNL1        0.0007
     22 C          61.7603   84.9800   11.6967 C.ar    1  UNL1       -0.0002
     23 C          62.7736   84.2307   10.8833 C.ar    1  UNL1        0.0000
     24 C          63.2611   84.7994    9.5837 C.ar    1  UNL1       -0.0002
     25 C          62.7352   86.1174    9.0975 C.ar    1  UNL1        0.0007
     26 C          63.2994   82.9127   11.3694 C.2     1  UNL1        0.0012
     27 C          62.5042   82.1039   12.3509 C.2     1  UNL1        0.0151
     28 C          63.0301   80.7859   12.8370 C.2     1  UNL1        0.0729
     29 O          62.7044   79.5266   12.0898 O.co2   1  UNL1       -0.5446
     30 O          63.8818   80.7270   14.0704 O.co2   1  UNL1       -0.5446
@<TRIPOS>UNITY_ATOM_ATTR
29 1
charge -1
@<TRIPOS>BOND
     1     6     7    1
     2     7     8    1
     3     7     9    1
     4     9    10    1
     5    10    11    1
     6    11    12    1
     7    11    13    1
     8    11    14    1
     9    14    15   ar
    10    15    16   ar
    11    16     1    1
    12     1    20    1
    13    20    21   ar
    14    21    22   ar
    15    22    23   ar
    16    23    26    1
    17    26    27    2
    18    27    28    1
    19    28    29   ar
    20    28    30   ar
    21    23    24   ar
    22    24    25   ar
    23     1     2    1
    24     2     3    1
    25     3     4    1
    26     4     5    1
    27    16    17   ar
    28    17    18   ar
    29    18    19   ar
    30    19     7    1
    31    19    14   ar
    32     5     1    1
    33    25    20   ar
@<TRIPOS>MOLECULE
*****
 30 33 0 0 0
SMALL
GASTEIGER

@<TRIPOS>ATOM
      1 C          64.3588   90.4664   13.4934 C.3     1  UNL1        0.2278
      2 O          64.3721   91.8957   13.0385 O.3     1  UNL1       -0.3250
      3 C          65.4093   92.6270   13.8381 C.3     1  UNL1        0.1773
      4 C          66.0370   91.6497   14.7871 C.3     1  UNL1        0.1773
      5 O          65.3878   90.3144   14.5741 O.3     1  UNL1       -0.3250
      6 C          63.9624   85.0156   15.7861 C.3     1  UNL1        0.0044
      7 C          63.4035   84.6208   14.4512 C.3     1  UNL1        0.0186
      8 C          63.3587   83.2965   15.1542 C.3     1  UNL1        0.0044
      9 C          62.8291   83.7662   13.3605 C.3     1  UNL1        0.0044
     10 C          62.4935   84.3729   12.0303 C.3     1  UNL1        0.0044
     11 C          62.7323   85.8343   11.7909 C.3     1  UNL1        0.0186
     12 C          62.1735   85.4395   10.4560 C.3     1  UNL1        0.0044
     13 C          62.7771   87.1586   11.0878 C.3     1  UNL1        0.0044
     14 C          63.3068   86.6890   12.8816 C.ar    1  UNL1       -0.0269
     15 C          63.5456   88.1503   12.6421 C.ar    1  UNL1       -0.0039
     16 C          64.1200   89.0049   13.7328 C.ar    1  UNL1        0.0323
     17 C          64.4555   88.3982   15.0630 C.ar    1  UNL1        0.0004
     18 C          64.2167   86.9369   15.3024 C.ar    1  UNL1       -0.0048
     19 C          63.6423   86.0823   14.2117 C.ar    1  UNL1       -0.0268
     20 C          63.2799   90.3129   12.4627 C.ar    1  UNL1        0.0326
     21 C          63.5998   90.4972   11.0088 C.ar    1  UNL1        0.0007
     22 C          62.5207   90.3437    9.9781 C.ar    1  UNL1       -0.0002
     23 C          61.1219   90.0058   10.4013 C.ar    1  UNL1        0.0000
     24 C          60.8020   89.8214   11.8552 C.ar    1  UNL1       -0.0002
     25 C          61.8811   89.9750   12.8859 C.ar    1  UNL1        0.0007
     26 C          60.0430   89.8522    9.3707 C.2     1  UNL1        0.0012
     27 C          60.1552   88.7874    8.3203 C.2     1  UNL1        0.0151
     28 C          59.0761   88.6339    7.2897 C.2     1  UNL1        0.0729
     29 O          58.8963   89.6805    6.2303 O.co2   1  UNL1       -0.5446
     30 O          58.1768   87.4337    7.3184 O.co2   1  UNL1       -0.5446
@<TRIPOS>UNITY_ATOM_ATTR
29 1
charge -1
@<TRIPOS>BOND
     1     6     7    1
     2     7     8    1
     3     7     9    1
     4     9    10    1
     5    10    11    1
     6    11    12    1
     7    11    13    1
     8    11    14    1
     9    14    15   ar
    10    15    16   ar
    11    16     1    1
    12     1    20    1
    13    20    21   ar
    14    21    22   ar
    15    22    23   ar
    16    23    26    1
    17    26    27    2
    18    27    28    1
    19    28    29   ar
    20    28    30   ar
    21    23    24   ar
    22    24    25   ar
    23     1     2    1
    24     2     3    1
    25     3     4    1
    26     4     5    1
    27    16    17   ar
    28    17    18   ar
    29    18    19   ar
    30    19     7    1
    31    19    14   ar
    32     5     1    1
    33    25    20   ar
@<TRIPOS>MOLECULE
*****
 30 33 0 0 0
SMALL
GASTEIGER

@<TRIPOS>ATOM
      1 C          64.3588   91.2187   12.8512 C.3     1  UNL1        0.2278
      2 O          64.4691   92.1068   11.6475 O.3     1  UNL1       -0.3250
      3 C          65.4949   93.1609   11.9417 C.3     1  UNL1        0.1773
      4 C          66.0187   92.9242   13.3271 C.3     1  UNL1        0.1773
      5 O          65.3164   91.7238   13.8893 O.3     1  UNL1       -0.3250
      6 C          62.9732   88.3005   17.8200 C.3     1  UNL1        0.0044
      7 C          63.0598   87.0618   16.9784 C.3     1  UNL1        0.0186
      8 C          62.7050   86.4528   18.3025 C.3     1  UNL1        0.0044
      9 C          63.0231   85.6117   16.5966 C.3     1  UNL1        0.0044
     10 C          63.3111   85.2008   15.1830 C.3     1  UNL1        0.0044
     11 C          63.6358   86.2399   14.1513 C.3     1  UNL1        0.0186
     12 C          63.7224   85.0013   13.3096 C.3     1  UNL1        0.0044
     13 C          63.9906   86.8490   12.8271 C.3     1  UNL1        0.0044
     14 C          63.6726   87.6901   14.5330 C.ar    1  UNL1       -0.0269
     15 C          63.9973   88.7293   13.5012 C.ar    1  UNL1       -0.0039
     16 C          64.0340   90.1794   13.8830 C.ar    1  UNL1        0.0323
     17 C          63.7460   90.5903   15.2966 C.ar    1  UNL1        0.0004
     18 C          63.4212   89.5512   16.3284 C.ar    1  UNL1       -0.0048
     19 C          63.3845   88.1011   15.9466 C.ar    1  UNL1       -0.0268
     20 C          63.3332   90.4963   12.0288 C.ar    1  UNL1        0.0326
     21 C          63.6500   90.0944   10.6188 C.ar    1  UNL1        0.0007
     22 C          62.6243   89.3719    9.7964 C.ar    1  UNL1       -0.0002
     23 C          61.2820   89.0514   10.3841 C.ar    1  UNL1        0.0000
     24 C          60.9652   89.4533   11.7941 C.ar    1  UNL1       -0.0002
     25 C          61.9909   90.1757   12.6165 C.ar    1  UNL1        0.0007
     26 C          60.2564   88.3290    9.5618 C.2     1  UNL1        0.0012
     27 C          60.6558   87.1386    8.7412 C.2     1  UNL1        0.0151
     28 C          59.6301   86.4162    7.9190 C.2     1  UNL1        0.0729
     29 O          58.1935   86.8452    7.9657 O.co2   1  UNL1       -0.5446
     30 O          60.0410   85.2647    7.0498 O.co2   1  UNL1       -0.5446
@<TRIPOS>UNITY_ATOM_ATTR
29 1
charge -1
@<TRIPOS>BOND
     1     6     7    1
     2     7     8    1
     3     7     9    1
     4     9    10    1
     5    10    11    1
     6    11    12    1
     7    11    13    1
     8    11    14    1
     9    14    15   ar
    10    15    16   ar
    11    16     1    1
    12     1    20    1
    13    20    21   ar
    14    21    22   ar
    15    22    23   ar
    16    23    26    1
    17    26    27    2
    18    27    28    1
    19    28    29   ar
    20    28    30   ar
    21    23    24   ar
    22    24    25   ar
    23     1     2    1
    24     2     3    1
    25     3     4    1
    26     4     5    1
    27    16    17   ar
    28    17    18   ar
    29    18    19   ar
    30    19     7    1
    31    19    14   ar
    32     5     1    1
    33    25    20   ar
@<TRIPOS>MOLECULE
*****
 30 33 0 0 0
SMALL
GASTEIGER

@<TRIPOS>ATOM
      1 C          63.8843   90.4775   14.5674 C.3     1  UNL1        0.2278
      2 O          64.4531   91.5906   15.3966 O.3     1  UNL1       -0.3250
      3 C          63.9966   91.3943   16.8118 C.3     1  UNL1        0.1773
      4 C          63.1456   90.1599   16.8574 C.3     1  UNL1        0.1773
      5 O          63.0761   89.5933   15.4703 O.3     1  UNL1       -0.3250
      6 C          61.7743   87.8820    9.6749 C.3     1  UNL1        0.0044
      7 C          62.2115   86.5951   10.3096 C.3     1  UNL1        0.0186
      8 C          61.6415   86.0714    9.0247 C.3     1  UNL1        0.0044
      9 C          62.4508   85.1263   10.4980 C.3     1  UNL1        0.0044
     10 C          63.1082   84.6282   11.7509 C.3     1  UNL1        0.0044
     11 C          63.5263   85.5987   12.8153 C.3     1  UNL1        0.0186
     12 C          63.9635   84.3118   13.4500 C.3     1  UNL1        0.0044
     13 C          64.0964   86.1224   14.1002 C.3     1  UNL1        0.0044
     14 C          63.2871   87.0676   12.6269 C.ar    1  UNL1       -0.0269
     15 C          63.7053   88.0381   13.6914 C.ar    1  UNL1       -0.0039
     16 C          63.4661   89.5069   13.5029 C.ar    1  UNL1        0.0323
     17 C          62.8087   90.0050   12.2501 C.ar    1  UNL1        0.0004
     18 C          62.3905   89.0345   11.1856 C.ar    1  UNL1       -0.0048
     19 C          62.6297   87.5657   11.3741 C.ar    1  UNL1       -0.0268
     20 C          64.6049   91.1588   13.4420 C.ar    1  UNL1        0.0326
     21 C          66.0910   91.3510   13.5104 C.ar    1  UNL1        0.0007
     22 C          66.8117   92.0323   12.3849 C.ar    1  UNL1       -0.0002
     23 C          66.0463   92.5213   11.1912 C.ar    1  UNL1        0.0000
     24 C          64.5602   92.3291   11.1228 C.ar    1  UNL1       -0.0002
     25 C          63.8396   91.6478   12.2483 C.ar    1  UNL1        0.0007
     26 C          66.7669   93.2026   10.0658 C.2     1  UNL1        0.0012
     27 C          66.6367   94.6853    9.8804 C.2     1  UNL1        0.0151
     28 C          67.3573   95.3665    8.7549 C.2     1  UNL1        0.0729
     29 O          67.9005   94.5585    7.6139 O.co2   1  UNL1       -0.5446
     30 O          67.5348   96.8560    8.7705 O.co2   1  UNL1       -0.5446
@<TRIPOS>UNITY_ATOM_ATTR
29 1
charge -1
@<TRIPOS>BOND
     1     6     7    1
     2     7     8    1
     3     7     9    1
     4     9    10    1
     5    10    11    1
     6    11    12    1
     7    11    13    1
     8    11    14    1
     9    14    15   ar
    10    15    16   ar
    11    16     1    1
    12     1    20    1
    13    20    21   ar
    14    21    22   ar
    15    22    23   ar
    16    23    26    1
    17    26    27    2
    18    27    28    1
    19    28    29   ar
    20    28    30   ar
    21    23    24   ar
    22    24    25   ar
    23     1     2    1
    24     2     3    1
    25     3     4    1
    26     4     5    1
    27    16    17   ar
    28    17    18   ar
    29    18    19   ar
    30    19     7    1
    31    19    14   ar
    32     5     1    1
    33    25    20   ar
@<TRIPOS>MOLECULE
*****
 30 33 0 0 0
SMALL
GASTEIGER

@<TRIPOS>ATOM
      1 C          60.6809   87.5622    9.4325 C.3     1  UNL1        0.2278
      2 O          60.1728   88.7231    8.6299 O.3     1  UNL1       -0.3250
      3 C          59.2363   88.1904    7.5862 C.3     1  UNL1        0.1773
      4 C          59.1656   86.7004    7.7438 C.3     1  UNL1        0.1773
      5 O          60.0584   86.3122    8.8849 O.3     1  UNL1       -0.3250
      6 C          62.5951   84.6639   14.2346 C.3     1  UNL1        0.0044
      7 C          63.3507   83.7999   13.2688 C.3     1  UNL1        0.0186
      8 C          63.7558   83.1593   14.5633 C.3     1  UNL1        0.0044
      9 C          64.2469   82.7135   12.7526 C.3     1  UNL1        0.0044
     10 C          64.4757   82.5676   11.2774 C.3     1  UNL1        0.0044
     11 C          63.8083   83.5082   10.3183 C.3     1  UNL1        0.0186
     12 C          64.5639   82.6442    9.3525 C.3     1  UNL1        0.0044
     13 C          63.4032   84.1487    9.0238 C.3     1  UNL1        0.0044
     14 C          62.9120   84.5946   10.8345 C.ar    1  UNL1       -0.0269
     15 C          62.2446   85.5352    9.8754 C.ar    1  UNL1       -0.0039
     16 C          61.3484   86.6216   10.3916 C.ar    1  UNL1        0.0323
     17 C          61.1196   86.7675   11.8668 C.ar    1  UNL1        0.0004
     18 C          61.7870   85.8269   12.8259 C.ar    1  UNL1       -0.0048
     19 C          62.6832   84.7405   12.3097 C.ar    1  UNL1       -0.0268
     20 C          61.4429   88.6156   10.1806 C.ar    1  UNL1        0.0326
     21 C          60.8539   89.2339   11.4138 C.ar    1  UNL1        0.0007
     22 C          61.6160   90.2874   12.1619 C.ar    1  UNL1       -0.0002
     23 C          62.9671   90.7224   11.6768 C.ar    1  UNL1        0.0000
     24 C          63.5561   90.1042   10.4436 C.ar    1  UNL1       -0.0002
     25 C          62.7940   89.0507    9.6955 C.ar    1  UNL1        0.0007
     26 C          63.7291   91.7758   12.4248 C.2     1  UNL1        0.0012
     27 C          65.1425   92.0961   12.0379 C.2     1  UNL1        0.0151
     28 C          65.9045   93.1495   12.7860 C.2     1  UNL1        0.0729
     29 O          66.6850   94.1867   12.0344 O.co2   1  UNL1       -0.5446
     30 O          65.8860   93.1657   14.2859 O.co2   1  UNL1       -0.5446
@<TRIPOS>UNITY_ATOM_ATTR
29 1
charge -1
@<TRIPOS>BOND
     1     6     7    1
     2     7     8    1
     3     7     9    1
     4     9    10    1
     5    10    11    1
     6    11    12    1
     7    11    13    1
     8    11    14    1
     9    14    15   ar
    10    15    16   ar
    11    16     1    1
    12     1    20    1
    13    20    21   ar
    14    21    22   ar
    15    22    23   ar
    16    23    26    1
    17    26    27    2
    18    27    28    1
    19    28    29   ar
    20    28    30   ar
    21    23    24   ar
    22    24    25   ar
    23     1     2    1
    24     2     3    1
    25     3     4    1
    26     4     5    1
    27    16    17   ar
    28    17    18   ar
    29    18    19   ar
    30    19     7    1
    31    19    14   ar
    32     5     1    1
    33    25    20   ar
@<TRIPOS>MOLECULE
*****
 30 33 0 0 0
SMALL
GASTEIGER

@<TRIPOS>ATOM
      1 C          64.3861   90.7060   13.7600 C.3     1  UNL1        0.2278
      2 O          64.4960   92.0946   13.2035 O.3     1  UNL1       -0.3250
      3 C          65.4714   92.8573   14.0501 C.3     1  UNL1        0.1773
      4 C          65.9644   91.9402   15.1297 C.3     1  UNL1        0.1773
      5 O          65.2936   90.6105   14.9505 O.3     1  UNL1       -0.3250
      6 C          63.4632   84.8541   13.5888 C.3     1  UNL1        0.0044
      7 C          63.1327   84.9811   15.0464 C.3     1  UNL1        0.0186
      8 C          62.9342   83.5057   14.8618 C.3     1  UNL1        0.0044
      9 C          62.7333   84.5956   16.4399 C.3     1  UNL1        0.0044
     10 C          62.6471   85.6414   17.5118 C.3     1  UNL1        0.0044
     11 C          62.9605   87.0726   17.1902 C.3     1  UNL1        0.0186
     12 C          62.6300   87.1995   18.6479 C.3     1  UNL1        0.0044
     13 C          63.1590   88.5479   17.3749 C.3     1  UNL1        0.0044
     14 C          63.3599   87.4581   15.7967 C.ar    1  UNL1       -0.0269
     15 C          63.6733   88.8893   15.4751 C.ar    1  UNL1       -0.0039
     16 C          64.0727   89.2747   14.0816 C.ar    1  UNL1        0.0323
     17 C          64.1589   88.2289   13.0097 C.ar    1  UNL1        0.0004
     18 C          63.8455   86.7977   13.3313 C.ar    1  UNL1       -0.0048
     19 C          63.4461   86.4123   14.7248 C.ar    1  UNL1       -0.0268
     20 C          63.4130   90.5022   12.6368 C.ar    1  UNL1        0.0326
     21 C          62.0647   89.9051   12.9115 C.ar    1  UNL1        0.0007
     22 C          61.0916   89.7014   11.7882 C.ar    1  UNL1       -0.0002
     23 C          61.4669   90.0946   10.3902 C.ar    1  UNL1        0.0000
     24 C          62.8153   90.6917   10.1154 C.ar    1  UNL1       -0.0002
     25 C          63.7884   90.8955   11.2388 C.ar    1  UNL1        0.0007
     26 C          60.4940   89.8909    9.2670 C.2     1  UNL1        0.0012
     27 C          60.2114   88.5073    8.7612 C.2     1  UNL1        0.0151
     28 C          59.2384   88.3036    7.6379 C.2     1  UNL1        0.0729
     29 O          59.0716   89.3626    6.5887 O.co2   1  UNL1       -0.5446
     30 O          58.4320   87.0409    7.5638 O.co2   1  UNL1       -0.5446
@<TRIPOS>UNITY_ATOM_ATTR
29 1
charge -1
@<TRIPOS>BOND
     1     6     7    1
     2     7     8    1
     3     7     9    1
     4     9    10    1
     5    10    11    1
     6    11    12    1
     7    11    13    1
     8    11    14    1
     9    14    15   ar
    10    15    16   ar
    11    16     1    1
    12     1    20    1
    13    20    21   ar
    14    21    22   ar
    15    22    23   ar
    16    23    26    1
    17    26    27    2
    18    27    28    1
    19    28    29   ar
    20    28    30   ar
    21    23    24   ar
    22    24    25   ar
    23     1     2    1
    24     2     3    1
    25     3     4    1
    26     4     5    1
    27    16    17   ar
    28    17    18   ar
    29    18    19   ar
    30    19     7    1
    31    19    14   ar
    32     5     1    1
    33    25    20   ar
@<TRIPOS>MOLECULE
*****
 30 33 0 0 0
SMALL
GASTEIGER

@<TRIPOS>ATOM
      1 C          61.0073   88.1353    9.1539 C.3     1  UNL1        0.2278
      2 O          60.2315   87.1685    8.3092 O.3     1  UNL1       -0.3250
      3 C          59.3502   87.9603    7.3894 C.3     1  UNL1        0.1773
      4 C          59.5812   89.4165    7.6655 C.3     1  UNL1        0.1773
      5 O          60.6054   89.5246    8.7561 O.3     1  UNL1       -0.3250
      6 C          64.3778   92.0639   12.0403 C.3     1  UNL1        0.0044
      7 C          64.6037   90.9641   13.0351 C.3     1  UNL1        0.0186
      8 C          65.4244   92.0533   13.6599 C.3     1  UNL1        0.0044
      9 C          65.1147   90.2427   14.2469 C.3     1  UNL1        0.0044
     10 C          64.7265   88.8141   14.4884 C.3     1  UNL1        0.0044
     11 C          63.8275   88.1069   13.5181 C.3     1  UNL1        0.0186
     12 C          64.0534   87.0072   14.5130 C.3     1  UNL1        0.0044
     13 C          63.0068   87.0177   12.8933 C.3     1  UNL1        0.0044
     14 C          63.3165   88.8283   12.3063 C.ar    1  UNL1       -0.0269
     15 C          62.4174   88.1211   11.3360 C.ar    1  UNL1       -0.0039
     16 C          61.9064   88.8425   10.1243 C.ar    1  UNL1        0.0323
     17 C          62.2946   90.2711    9.8828 C.ar    1  UNL1        0.0004
     18 C          63.1937   90.9784   10.8530 C.ar    1  UNL1       -0.0048
     19 C          63.7046   90.2569   12.0648 C.ar    1  UNL1       -0.0268
     20 C          61.5972   86.8938    9.7546 C.ar    1  UNL1        0.0326
     21 C          61.0210   86.3248   11.0173 C.ar    1  UNL1        0.0007
     22 C          61.6110   85.0832   11.6179 C.ar    1  UNL1       -0.0002
     23 C          62.7770   84.4109   10.9560 C.ar    1  UNL1        0.0000
     24 C          63.3532   84.9800    9.6934 C.ar    1  UNL1       -0.0002
     25 C          62.7632   86.2215    9.0927 C.ar    1  UNL1        0.0007
     26 C          63.3669   83.1695   11.5566 C.2     1  UNL1        0.0012
     27 C          62.4850   82.1917   12.2750 C.2     1  UNL1        0.0151
     28 C          63.0750   80.9503   12.8756 C.2     1  UNL1        0.0729
     29 O          64.0290   81.0551   14.0284 O.co2   1  UNL1       -0.5446
     30 O          62.7110   79.6039   12.3234 O.co2   1  UNL1       -0.5446
@<TRIPOS>UNITY_ATOM_ATTR
29 1
charge -1
@<TRIPOS>BOND
     1     6     7    1
     2     7     8    1
     3     7     9    1
     4     9    10    1
     5    10    11    1
     6    11    12    1
     7    11    13    1
     8    11    14    1
     9    14    15   ar
    10    15    16   ar
    11    16     1    1
    12     1    20    1
    13    20    21   ar
    14    21    22   ar
    15    22    23   ar
    16    23    26    1
    17    26    27    2
    18    27    28    1
    19    28    29   ar
    20    28    30   ar
    21    23    24   ar
    22    24    25   ar
    23     1     2    1
    24     2     3    1
    25     3     4    1
    26     4     5    1
    27    16    17   ar
    28    17    18   ar
    29    18    19   ar
    30    19     7    1
    31    19    14   ar
    32     5     1    1
    33    25    20   ar
@<TRIPOS>MOLECULE
*****
 30 33 0 0 0
SMALL
GASTEIGER

@<TRIPOS>ATOM
      1 C          60.5722   87.6418    8.9998 C.3     1  UNL1        0.2278
      2 O          59.8441   88.9159    8.6893 O.3     1  UNL1       -0.3250
      3 C          58.8753   88.6373    7.5785 C.3     1  UNL1        0.1773
      4 C          59.0046   87.1910    7.2025 C.3     1  UNL1        0.1773
      5 O          60.0534   86.5757    8.0810 O.3     1  UNL1       -0.3250
      6 C          64.3107   83.0864    9.6298 C.3     1  UNL1        0.0044
      7 C          64.0714   83.2445   11.1022 C.3     1  UNL1        0.0186
      8 C          65.0294   82.0903   11.1164 C.3     1  UNL1        0.0044
      9 C          64.1648   83.0018   12.5794 C.3     1  UNL1        0.0044
     10 C          63.3834   83.8583   13.5311 C.3     1  UNL1        0.0044
     11 C          62.5086   84.9576   13.0056 C.3     1  UNL1        0.0186
     12 C          62.2693   85.1157   14.4779 C.3     1  UNL1        0.0044
     13 C          61.5506   86.1119   12.9913 C.3     1  UNL1        0.0044
     14 C          62.4152   85.2004   11.5282 C.ar    1  UNL1       -0.0269
     15 C          61.5404   86.2997   11.0027 C.ar    1  UNL1       -0.0039
     16 C          61.4470   86.5424    9.5254 C.ar    1  UNL1        0.0323
     17 C          62.2284   85.6859    8.5737 C.ar    1  UNL1        0.0004
     18 C          63.1032   84.5866    9.0993 C.ar    1  UNL1       -0.0048
     19 C          63.1966   84.3439   10.5765 C.ar    1  UNL1       -0.0268
     20 C          61.2739   88.4780   10.0285 C.ar    1  UNL1        0.0326
     21 C          60.5321   88.9514   11.2433 C.ar    1  UNL1        0.0007
     22 C          61.2339   89.7877   12.2721 C.ar    1  UNL1       -0.0002
     23 C          62.6773   90.1506   12.0860 C.ar    1  UNL1        0.0000
     24 C          63.4191   89.6772   10.8712 C.ar    1  UNL1       -0.0002
     25 C          62.7173   88.8409    9.8425 C.ar    1  UNL1        0.0007
     26 C          63.3791   90.9868   13.1147 C.2     1  UNL1        0.0012
     27 C          63.5662   90.4619   14.5073 C.2     1  UNL1        0.0151
     28 C          64.2680   91.2982   15.5360 C.2     1  UNL1        0.0729
     29 O          65.7092   91.6681   15.3459 O.co2   1  UNL1       -0.5446
     30 O          63.5285   91.7648   16.7549 O.co2   1  UNL1       -0.5446
@<TRIPOS>UNITY_ATOM_ATTR
29 1
charge -1
@<TRIPOS>BOND
     1     6     7    1
     2     7     8    1
     3     7     9    1
     4     9    10    1
     5    10    11    1
     6    11    12    1
     7    11    13    1
     8    11    14    1
     9    14    15   ar
    10    15    16   ar
    11    16     1    1
    12     1    20    1
    13    20    21   ar
    14    21    22   ar
    15    22    23   ar
    16    23    26    1
    17    26    27    2
    18    27    28    1
    19    28    29   ar
    20    28    30   ar
    21    23    24   ar
    22    24    25   ar
    23     1     2    1
    24     2     3    1
    25     3     4    1
    26     4     5    1
    27    16    17   ar
    28    17    18   ar
    29    18    19   ar
    30    19     7    1
    31    19    14   ar
    32     5     1    1
    33    25    20   ar
@<TRIPOS>MOLECULE
*****
 30 33 0 0 0
SMALL
GASTEIGER

@<TRIPOS>ATOM
      1 C          62.8379   84.8681   11.8060 C.3     1  UNL1        0.2278
      2 O          62.3352   83.6728   11.0520 O.3     1  UNL1       -0.3250
      3 C          62.9321   82.4464   11.6761 C.3     1  UNL1        0.1773
      4 C          63.8036   82.8837   12.8159 C.3     1  UNL1        0.1773
      5 O          63.7454   84.3804   12.8962 O.3     1  UNL1       -0.3250
      6 C          64.4795   89.4436   15.1964 C.3     1  UNL1        0.0044
      7 C          64.1466   90.2944   14.0067 C.3     1  UNL1        0.0186
      8 C          64.5894   91.3555   14.9701 C.3     1  UNL1        0.0044
      9 C          63.9675   91.5137   13.1516 C.3     1  UNL1        0.0044
     10 C          63.4613   91.3764   11.7463 C.3     1  UNL1        0.0044
     11 C          63.1341   90.0199   11.1961 C.3     1  UNL1        0.0186
     12 C          62.8012   90.8707   10.0064 C.3     1  UNL1        0.0044
     13 C          62.6913   88.9588   10.2328 C.3     1  UNL1        0.0044
     14 C          63.3132   88.8005   12.0513 C.ar    1  UNL1       -0.0269
     15 C          62.9860   87.4440   11.5011 C.ar    1  UNL1       -0.0039
     16 C          63.1650   86.2247   12.3562 C.ar    1  UNL1        0.0323
     17 C          63.6713   86.3620   13.7615 C.ar    1  UNL1        0.0004
     18 C          63.9985   87.7185   14.3117 C.ar    1  UNL1       -0.0048
     19 C          63.8194   88.9378   13.4566 C.ar    1  UNL1       -0.0268
     20 C          61.9987   85.6394   10.8308 C.ar    1  UNL1        0.0326
     21 C          60.8642   86.4875   11.3243 C.ar    1  UNL1        0.0007
     22 C          60.0250   87.2589   10.3490 C.ar    1  UNL1       -0.0002
     23 C          60.3205   87.1820    8.8804 C.ar    1  UNL1        0.0000
     24 C          61.4551   86.3339    8.3870 C.ar    1  UNL1       -0.0002
     25 C          62.2942   85.5626    9.3623 C.ar    1  UNL1        0.0007
     26 C          59.4815   87.9533    7.9052 C.2     1  UNL1        0.0012
     27 C          60.0456   89.1651    7.2246 C.2     1  UNL1        0.0151
     28 C          59.2064   89.9363    6.2494 C.2     1  UNL1        0.0729
     29 O          59.8621   90.8251    5.2344 O.co2   1  UNL1       -0.5446
     30 O          57.7115   89.8188    6.2891 O.co2   1  UNL1       -0.5446
@<TRIPOS>UNITY_ATOM_ATTR
29 1
charge -1
@<TRIPOS>BOND
     1     6     7    1
     2     7     8    1
     3     7     9    1
     4     9    10    1
     5    10    11    1
     6    11    12    1
     7    11    13    1
     8    11    14    1
     9    14    15   ar
    10    15    16   ar
    11    16     1    1
    12     1    20    1
    13    20    21   ar
    14    21    22   ar
    15    22    23   ar
    16    23    26    1
    17    26    27    2
    18    27    28    1
    19    28    29   ar
    20    28    30   ar
    21    23    24   ar
    22    24    25   ar
    23     1     2    1
    24     2     3    1
    25     3     4    1
    26     4     5    1
    27    16    17   ar
    28    17    18   ar
    29    18    19   ar
    30    19     7    1
    31    19    14   ar
    32     5     1    1
    33    25    20   ar
