@<TRIPOS>MOLECULE
*****
 34 37 0 0 0
SMALL
GASTEIGER

@<TRIPOS>ATOM
      1 N          62.8589   90.8145   11.6646 N.am    1  UNL1       -0.2438
      2 C          63.3296   91.4684   10.3994 C.3     1  UNL1        0.1009
      3 C          64.4962   92.4106   10.4312 C.3     1  UNL1        0.0662
      4 C          65.1922   92.6991   11.7282 C.3     1  UNL1        0.1602
      5 O          64.7216   92.0452   12.9936 O.3     1  UNL1       -0.4374
      6 C          63.5549   91.1029   12.9618 C.2     1  UNL1        0.4051
      7 O          63.0843   90.4490   14.2270 O.2     1  UNL1       -0.2262
      8 C          66.0023   93.5565   10.8016 C.ar    1  UNL1        0.0140
      9 C          65.6910   95.0177   10.6675 C.ar    1  UNL1        0.0014
     10 C          66.5011   95.8752    9.7409 C.ar    1  UNL1        0.0294
     11 C          67.6225   95.2714    8.9485 C.ar    1  UNL1        0.1401
     12 F          68.4326   96.1289    8.0219 F       1  UNL1       -0.2042
     13 C          67.9338   93.8102    9.0826 C.ar    1  UNL1        0.0294
     14 C          67.1237   92.9528   10.0092 C.ar    1  UNL1        0.0014
     15 C          60.2931   90.4118   11.5983 C.3     1  UNL1        0.0265
     16 C          61.6923   89.8722   11.6329 C.3     1  UNL1        0.1011
     17 C          61.9248   88.3903   11.6356 C.ar    1  UNL1       -0.0042
     18 C          61.0570   87.4934   10.8036 C.ar    1  UNL1       -0.0027
     19 C          61.2896   86.0115   10.8064 C.ar    1  UNL1       -0.0002
     20 C          62.3900   85.4266   11.6413 C.ar    1  UNL1        0.0021
     21 C          63.2578   86.3236   12.4733 C.ar    1  UNL1       -0.0002
     22 C          63.0252   87.8054   12.4705 C.ar    1  UNL1       -0.0027
     23 C          62.6225   83.9447   11.6440 C.ar    1  UNL1        0.0276
     24 C          62.1860   83.1192   12.8179 C.ar    1  UNL1        0.0045
     25 C          62.4185   81.6373   12.8207 C.ar    1  UNL1        0.0298
     26 C          63.0876   80.9810   11.6496 C.ar    1  UNL1        0.1424
     27 F          63.3202   79.4992   11.6523 F       1  UNL1       -0.2041
     28 C          63.5242   81.8065   10.4757 C.ar    1  UNL1        0.0592
     29 C          63.2916   83.2884   10.4729 C.ar    1  UNL1        0.1423
     30 F          63.7282   84.1139    9.2990 F       1  UNL1       -0.2041
     31 C          66.1696   93.2853   12.7035 C.3     1  UNL1        0.0762
     32 C          66.3842   92.6303   14.0357 C.3     1  UNL1        0.1411
     33 O          65.7465   93.2054   15.2657 O.3     1  UNL1       -0.3819
     34 H          66.1286   94.0777   15.4502 H       1  UNL1        0.2104
@<TRIPOS>BOND
     1    16    15    1
     2    16    17    1
     3    17    18   ar
     4    18    19   ar
     5    19    20   ar
     6    20    23    1
     7    23    24   ar
     8    24    25   ar
     9    25    26   ar
    10    26    27    1
    11    26    28   ar
    12    28    29   ar
    13    29    30    1
    14    20    21   ar
    15    21    22   ar
    16    16     1    1
    17     1     2    1
    18     2     3    1
    19     3     4    1
    20     4    31    1
    21    31    32    1
    22    32    33    1
    23     4     8    1
    24     8     9   ar
    25     9    10   ar
    26    10    11   ar
    27    11    12    1
    28    11    13   ar
    29    13    14   ar
    30     4     5    1
    31     5     6    1
    32     6     7    2
    33    22    17   ar
    34     6     1   am
    35    29    23   ar
    36    14     8   ar
    37    33    34    1
@<TRIPOS>MOLECULE
*****
 34 37 0 0 0
SMALL
GASTEIGER

@<TRIPOS>ATOM
      1 N          63.2864   90.2991   12.0392 N.am    1  UNL1       -0.2438
      2 C          64.0049   90.1977   13.3520 C.3     1  UNL1        0.1009
      3 C          65.2051   91.0570   13.6185 C.3     1  UNL1        0.0662
      4 C          65.6869   92.0178   12.5722 C.3     1  UNL1        0.1602
      5 O          64.9684   92.1193   11.2593 O.3     1  UNL1       -0.4374
      6 C          63.7682   91.2599   10.9928 C.2     1  UNL1        0.4051
      7 O          63.0497   91.3614    9.6800 O.2     1  UNL1       -0.2262
      8 C          66.6942   92.2819   13.6519 C.ar    1  UNL1        0.0140
      9 C          68.1448   91.9837   13.4134 C.ar    1  UNL1        0.0014
     10 C          69.1521   92.2478   14.4931 C.ar    1  UNL1        0.0294
     11 C          68.7087   92.8100   15.8111 C.ar    1  UNL1        0.1401
     12 F          69.7160   93.0741   16.8908 F       1  UNL1       -0.2042
     13 C          67.2581   93.1081   16.0496 C.ar    1  UNL1        0.0294
     14 C          66.2508   92.8441   14.9699 C.ar    1  UNL1        0.0014
     15 C          60.7501   90.0742   11.5228 C.3     1  UNL1        0.0265
     16 C          62.0862   89.4398   11.7727 C.3     1  UNL1        0.1011
     17 C          62.2220   87.9460   11.7561 C.ar    1  UNL1       -0.0042
     18 C          63.1457   87.2662   12.7228 C.ar    1  UNL1       -0.0027
     19 C          63.2816   85.7725   12.7062 C.ar    1  UNL1       -0.0002
     20 C          62.4937   84.9586   11.7229 C.ar    1  UNL1        0.0021
     21 C          61.5700   85.6385   10.7562 C.ar    1  UNL1       -0.0002
     22 C          61.4342   87.1322   10.7728 C.ar    1  UNL1       -0.0027
     23 C          62.6295   83.4648   11.7063 C.ar    1  UNL1        0.0276
     24 C          62.1906   82.6586   12.8926 C.ar    1  UNL1        0.0045
     25 C          62.3265   81.1648   12.8760 C.ar    1  UNL1        0.0298
     26 C          62.9013   80.4773   11.6731 C.ar    1  UNL1        0.1424
     27 F          63.0371   78.9836   11.6565 F       1  UNL1       -0.2041
     28 C          63.3402   81.2836   10.4868 C.ar    1  UNL1        0.0592
     29 C          63.2043   82.7773   10.5034 C.ar    1  UNL1        0.1423
     30 F          63.6432   83.5836    9.3171 F       1  UNL1       -0.2041
     31 C          66.5185   93.0703   11.9008 C.3     1  UNL1        0.0762
     32 C          65.8534   94.2176   11.1999 C.3     1  UNL1        0.1411
     33 O          65.9104   94.3175    9.7043 O.3     1  UNL1       -0.3819
     34 H          66.8273   94.4661    9.4249 H       1  UNL1        0.2104
@<TRIPOS>BOND
     1    16    15    1
     2    16    17    1
     3    17    18   ar
     4    18    19   ar
     5    19    20   ar
     6    20    23    1
     7    23    24   ar
     8    24    25   ar
     9    25    26   ar
    10    26    27    1
    11    26    28   ar
    12    28    29   ar
    13    29    30    1
    14    20    21   ar
    15    21    22   ar
    16    16     1    1
    17     1     2    1
    18     2     3    1
    19     3     4    1
    20     4    31    1
    21    31    32    1
    22    32    33    1
    23     4     8    1
    24     8     9   ar
    25     9    10   ar
    26    10    11   ar
    27    11    12    1
    28    11    13   ar
    29    13    14   ar
    30     4     5    1
    31     5     6    1
    32     6     7    2
    33    22    17   ar
    34     6     1   am
    35    29    23   ar
    36    14     8   ar
    37    33    34    1
@<TRIPOS>MOLECULE
*****
 34 37 0 0 0
SMALL
GASTEIGER

@<TRIPOS>ATOM
      1 N          62.5633   87.9164   12.4537 N.am    1  UNL1       -0.2438
      2 C          62.1585   86.8821   11.4455 C.3     1  UNL1        0.1009
      3 C          62.6547   85.4727   11.5762 C.3     1  UNL1        0.0662
      4 C          63.5559   85.0974   12.7151 C.3     1  UNL1        0.1602
      5 O          63.9608   86.1317   13.7233 O.3     1  UNL1       -0.4374
      6 C          63.4645   87.5412   13.5926 C.2     1  UNL1        0.4051
      7 O          63.8693   88.5754   14.6008 O.2     1  UNL1       -0.2262
      8 C          63.4514   83.7731   12.0184 C.ar    1  UNL1        0.0140
      9 C          62.6769   82.6535   12.6482 C.ar    1  UNL1        0.0014
     10 C          62.5724   81.3292   11.9515 C.ar    1  UNL1        0.0294
     11 C          63.2424   81.1246   10.6251 C.ar    1  UNL1        0.1401
     12 F          63.1379   79.8003    9.9285 F       1  UNL1       -0.2042
     13 C          64.0169   82.2442    9.9954 C.ar    1  UNL1        0.0294
     14 C          64.1214   83.5685   10.6921 C.ar    1  UNL1        0.0014
     15 C          60.6542   89.6614   12.6986 C.3     1  UNL1        0.0265
     16 C          62.0670   89.3258   12.3229 C.3     1  UNL1        0.1011
     17 C          62.9837   90.3998   11.8164 C.ar    1  UNL1       -0.0042
     18 C          63.9698   91.0437   12.7453 C.ar    1  UNL1       -0.0027
     19 C          64.8864   92.1176   12.2388 C.ar    1  UNL1       -0.0002
     20 C          64.8168   92.5476   10.8035 C.ar    1  UNL1        0.0021
     21 C          63.8307   91.9037    9.8746 C.ar    1  UNL1       -0.0002
     22 C          62.9141   90.8298   10.3811 C.ar    1  UNL1       -0.0027
     23 C          65.7335   93.6215   10.2970 C.ar    1  UNL1        0.0276
     24 C          65.2891   95.0541   10.3092 C.ar    1  UNL1        0.0045
     25 C          66.2058   96.1281    9.8027 C.ar    1  UNL1        0.0298
     26 C          67.5668   95.7694    9.2840 C.ar    1  UNL1        0.1424
     27 F          68.4834   96.8432    8.7776 F       1  UNL1       -0.2041
     28 C          68.0111   94.3367    9.2719 C.ar    1  UNL1        0.0592
     29 C          67.0945   93.2628    9.7783 C.ar    1  UNL1        0.1423
     30 F          67.5388   91.8301    9.7662 F       1  UNL1       -0.2041
     31 C          64.4208   84.2623   13.6121 C.3     1  UNL1        0.0762
     32 C          65.2829   84.9206   14.6480 C.3     1  UNL1        0.1411
     33 O          66.7769   84.8667   14.5249 O.3     1  UNL1       -0.3819
     34 H          67.0766   83.9494   14.6235 H       1  UNL1        0.2104
@<TRIPOS>BOND
     1    16    15    1
     2    16    17    1
     3    17    18   ar
     4    18    19   ar
     5    19    20   ar
     6    20    23    1
     7    23    24   ar
     8    24    25   ar
     9    25    26   ar
    10    26    27    1
    11    26    28   ar
    12    28    29   ar
    13    29    30    1
    14    20    21   ar
    15    21    22   ar
    16    16     1    1
    17     1     2    1
    18     2     3    1
    19     3     4    1
    20     4    31    1
    21    31    32    1
    22    32    33    1
    23     4     8    1
    24     8     9   ar
    25     9    10   ar
    26    10    11   ar
    27    11    12    1
    28    11    13   ar
    29    13    14   ar
    30     4     5    1
    31     5     6    1
    32     6     7    2
    33    22    17   ar
    34     6     1   am
    35    29    23   ar
    36    14     8   ar
    37    33    34    1
@<TRIPOS>MOLECULE
*****
 34 37 0 0 0
SMALL
GASTEIGER

@<TRIPOS>ATOM
      1 N          62.1401   88.6283   11.0156 N.am    1  UNL1       -0.2438
      2 C          62.6845   87.5617   11.9190 C.3     1  UNL1        0.1009
      3 C          62.7011   86.1318   11.4662 C.3     1  UNL1        0.0662
      4 C          62.1734   85.7684   10.1100 C.3     1  UNL1        0.1602
      5 O          61.6289   86.8350    9.2065 O.3     1  UNL1       -0.4374
      6 C          61.6123   88.2649    9.6593 C.2     1  UNL1        0.4051
      7 O          61.0679   89.3314    8.7559 O.2     1  UNL1       -0.2262
      8 C          62.5840   84.4121   10.6017 C.ar    1  UNL1        0.0140
      9 C          62.0760   83.9066   11.9194 C.ar    1  UNL1        0.0014
     10 C          62.4866   82.5502   12.4111 C.ar    1  UNL1        0.0294
     11 C          63.4052   81.6995   11.5850 C.ar    1  UNL1        0.1401
     12 F          63.8159   80.3431   12.0768 F       1  UNL1       -0.2042
     13 C          63.9133   82.2050   10.2673 C.ar    1  UNL1        0.0294
     14 C          63.5026   83.5614    9.7756 C.ar    1  UNL1        0.0014
     15 C          60.9236   90.9166   11.1980 C.3     1  UNL1        0.0265
     16 C          62.1235   90.0582   11.4685 C.3     1  UNL1        0.1011
     17 C          63.3068   90.6296   12.1918 C.ar    1  UNL1       -0.0042
     18 C          64.1566   91.6746   11.5316 C.ar    1  UNL1       -0.0027
     19 C          65.3398   92.2459   12.2549 C.ar    1  UNL1       -0.0002
     20 C          65.6734   91.7724   13.6386 C.ar    1  UNL1        0.0021
     21 C          64.8237   90.7275   14.2989 C.ar    1  UNL1       -0.0002
     22 C          63.6404   90.1561   13.5755 C.ar    1  UNL1       -0.0027
     23 C          66.8568   92.3438   14.3619 C.ar    1  UNL1        0.0276
     24 C          66.6562   93.1344   15.6208 C.ar    1  UNL1        0.0045
     25 C          67.8396   93.7059   16.3441 C.ar    1  UNL1        0.0298
     26 C          69.2235   93.4867   15.8086 C.ar    1  UNL1        0.1424
     27 F          70.4068   94.0581   16.5319 F       1  UNL1       -0.2041
     28 C          69.4240   92.6960   14.5497 C.ar    1  UNL1        0.0592
     29 C          68.2407   92.1246   13.8264 C.ar    1  UNL1        0.1423
     30 F          68.4412   91.3340   12.5675 F       1  UNL1       -0.2041
     31 C          61.7882   84.9340    8.9245 C.3     1  UNL1        0.0762
     32 C          61.2842   85.5934    7.6751 C.3     1  UNL1        0.1411
     33 O          59.8192   85.5708    7.3536 O.3     1  UNL1       -0.3819
     34 H          59.5405   84.6582    7.1792 H       1  UNL1        0.2104
@<TRIPOS>BOND
     1    16    15    1
     2    16    17    1
     3    17    18   ar
     4    18    19   ar
     5    19    20   ar
     6    20    23    1
     7    23    24   ar
     8    24    25   ar
     9    25    26   ar
    10    26    27    1
    11    26    28   ar
    12    28    29   ar
    13    29    30    1
    14    20    21   ar
    15    21    22   ar
    16    16     1    1
    17     1     2    1
    18     2     3    1
    19     3     4    1
    20     4    31    1
    21    31    32    1
    22    32    33    1
    23     4     8    1
    24     8     9   ar
    25     9    10   ar
    26    10    11   ar
    27    11    12    1
    28    11    13   ar
    29    13    14   ar
    30     4     5    1
    31     5     6    1
    32     6     7    2
    33    22    17   ar
    34     6     1   am
    35    29    23   ar
    36    14     8   ar
    37    33    34    1
@<TRIPOS>MOLECULE
*****
 34 37 0 0 0
SMALL
GASTEIGER

@<TRIPOS>ATOM
      1 N          62.0565   88.0412   11.1519 N.am    1  UNL1       -0.2438
      2 C          61.5696   88.0792    9.7336 C.3     1  UNL1        0.1009
      3 C          61.7691   86.8910    8.8401 C.3     1  UNL1        0.0662
      4 C          62.4554   85.6648    9.3648 C.3     1  UNL1        0.1602
      5 O          62.9423   85.6268   10.7831 O.3     1  UNL1       -0.4374
      6 C          62.7429   86.8150   11.6766 C.2     1  UNL1        0.4051
      7 O          63.2297   86.7770   13.0949 O.2     1  UNL1       -0.2262
      8 C          62.1728   85.2238    7.9591 C.ar    1  UNL1        0.0140
      9 C          63.2983   84.7833    7.0707 C.ar    1  UNL1        0.0014
     10 C          63.0157   84.3423    5.6651 C.ar    1  UNL1        0.0294
     11 C          61.6076   84.3418    5.1481 C.ar    1  UNL1        0.1401
     12 F          61.3250   83.9007    3.7425 F       1  UNL1       -0.2042
     13 C          60.4822   84.7823    6.0365 C.ar    1  UNL1        0.0294
     14 C          60.7648   85.2233    7.4421 C.ar    1  UNL1        0.0014
     15 C          60.4723   89.7346   12.3236 C.3     1  UNL1        0.0265
     16 C          61.8570   89.2294   12.0454 C.3     1  UNL1        0.1011
     17 C          63.0423   89.9124   12.6608 C.ar    1  UNL1       -0.0042
     18 C          63.7209   91.0359   11.9349 C.ar    1  UNL1       -0.0027
     19 C          64.9062   91.7189   12.5503 C.ar    1  UNL1       -0.0002
     20 C          65.4127   91.2783   13.8916 C.ar    1  UNL1        0.0021
     21 C          64.7341   90.1548   14.6176 C.ar    1  UNL1       -0.0002
     22 C          63.5489   89.4718   14.0022 C.ar    1  UNL1       -0.0027
     23 C          66.5980   91.9613   14.5070 C.ar    1  UNL1        0.0276
     24 C          67.9207   91.9504   13.7997 C.ar    1  UNL1        0.0045
     25 C          69.1060   92.6334   14.4152 C.ar    1  UNL1        0.0298
     26 C          68.9685   93.3273   15.7379 C.ar    1  UNL1        0.1424
     27 F          70.1537   94.0103   16.3533 F       1  UNL1       -0.2041
     28 C          67.6458   93.3382   16.4452 C.ar    1  UNL1        0.0592
     29 C          66.4606   92.6552   15.8298 C.ar    1  UNL1        0.1423
     30 F          65.1378   92.6661   16.5371 F       1  UNL1       -0.2041
     31 C          63.0437   84.2854    9.4013 C.3     1  UNL1        0.0762
     32 C          63.5482   83.7193   10.6955 C.3     1  UNL1        0.1411
     33 O          64.9281   83.1362   10.7718 O.3     1  UNL1       -0.3819
     34 H          64.9743   82.3412   10.2179 H       1  UNL1        0.2104
@<TRIPOS>BOND
     1    16    15    1
     2    16    17    1
     3    17    18   ar
     4    18    19   ar
     5    19    20   ar
     6    20    23    1
     7    23    24   ar
     8    24    25   ar
     9    25    26   ar
    10    26    27    1
    11    26    28   ar
    12    28    29   ar
    13    29    30    1
    14    20    21   ar
    15    21    22   ar
    16    16     1    1
    17     1     2    1
    18     2     3    1
    19     3     4    1
    20     4    31    1
    21    31    32    1
    22    32    33    1
    23     4     8    1
    24     8     9   ar
    25     9    10   ar
    26    10    11   ar
    27    11    12    1
    28    11    13   ar
    29    13    14   ar
    30     4     5    1
    31     5     6    1
    32     6     7    2
    33    22    17   ar
    34     6     1   am
    35    29    23   ar
    36    14     8   ar
    37    33    34    1
@<TRIPOS>MOLECULE
*****
 34 37 0 0 0
SMALL
GASTEIGER

@<TRIPOS>ATOM
      1 N          62.2272   87.7417   11.4724 N.am    1  UNL1       -0.2438
      2 C          62.3012   86.6273   12.4738 C.3     1  UNL1        0.1009
      3 C          62.4592   85.2101   12.0084 C.3     1  UNL1        0.0662
      4 C          62.5432   84.9072   10.5418 C.3     1  UNL1        0.1602
      5 O          62.4692   86.0216    9.5403 O.3     1  UNL1       -0.4374
      6 C          62.3112   87.4388   10.0057 C.2     1  UNL1        0.4051
      7 O          62.2372   88.5531    9.0043 O.2     1  UNL1       -0.2262
      8 C          62.6605   83.5204   11.1012 C.ar    1  UNL1        0.0140
      9 C          63.1230   82.3946   10.2245 C.ar    1  UNL1        0.0014
     10 C          63.2403   81.0078   10.7840 C.ar    1  UNL1        0.0294
     11 C          62.8951   80.7468   12.2202 C.ar    1  UNL1        0.1401
     12 F          63.0124   79.3600   12.7797 F       1  UNL1       -0.2042
     13 C          62.4326   81.8726   13.0969 C.ar    1  UNL1        0.0294
     14 C          62.3153   83.2594   12.5375 C.ar    1  UNL1        0.0014
     15 C          60.7577   89.8647   11.7605 C.3     1  UNL1        0.0265
     16 C          62.0693   89.1589   11.9377 C.3     1  UNL1        0.1011
     17 C          63.2230   89.8703   12.5804 C.ar    1  UNL1       -0.0042
     18 C          63.8426   89.3182   13.8299 C.ar    1  UNL1       -0.0027
     19 C          64.9962   90.0296   14.4724 C.ar    1  UNL1       -0.0002
     20 C          65.5303   91.2931   13.8655 C.ar    1  UNL1        0.0021
     21 C          64.9108   91.8452   12.6160 C.ar    1  UNL1       -0.0002
     22 C          63.7571   91.1338   11.9734 C.ar    1  UNL1       -0.0027
     23 C          66.6841   92.0045   14.5081 C.ar    1  UNL1        0.0276
     24 C          68.0170   92.0445   13.8214 C.ar    1  UNL1        0.0045
     25 C          69.1707   92.7559   14.4640 C.ar    1  UNL1        0.0298
     26 C          68.9914   93.4273   15.7934 C.ar    1  UNL1        0.1424
     27 F          70.1451   94.1386   16.4360 F       1  UNL1       -0.2041
     28 C          67.6584   93.3872   16.4801 C.ar    1  UNL1        0.0592
     29 C          66.5048   92.6758   15.8375 C.ar    1  UNL1        0.1423
     30 F          65.1717   92.6357   16.5242 F       1  UNL1       -0.2041
     31 C          62.6679   84.1227    9.2693 C.3     1  UNL1        0.0762
     32 C          63.0406   84.8175    7.9933 C.3     1  UNL1        0.1411
     33 O          62.0141   85.0100    6.9166 O.3     1  UNL1       -0.3819
     34 H          61.7529   84.1462    6.5608 H       1  UNL1        0.2104
@<TRIPOS>BOND
     1    16    15    1
     2    16    17    1
     3    17    18   ar
     4    18    19   ar
     5    19    20   ar
     6    20    23    1
     7    23    24   ar
     8    24    25   ar
     9    25    26   ar
    10    26    27    1
    11    26    28   ar
    12    28    29   ar
    13    29    30    1
    14    20    21   ar
    15    21    22   ar
    16    16     1    1
    17     1     2    1
    18     2     3    1
    19     3     4    1
    20     4    31    1
    21    31    32    1
    22    32    33    1
    23     4     8    1
    24     8     9   ar
    25     9    10   ar
    26    10    11   ar
    27    11    12    1
    28    11    13   ar
    29    13    14   ar
    30     4     5    1
    31     5     6    1
    32     6     7    2
    33    22    17   ar
    34     6     1   am
    35    29    23   ar
    36    14     8   ar
    37    33    34    1
