@<TRIPOS>MOLECULE
*****
 25 26 0 0 0
SMALL
GASTEIGER

@<TRIPOS>ATOM
      1 C          64.0426   89.3657   14.6038 C.ar    1  UNL1        0.0015
      2 C          63.4083   89.8817   15.8613 C.ar    1  UNL1        0.0001
      3 C          63.0228   88.9279   16.9529 C.ar    1  UNL1        0.0014
      4 C          63.2717   87.4581   16.7871 C.ar    1  UNL1        0.0202
      5 C          63.9060   86.9420   15.5296 C.ar    1  UNL1        0.1252
      6 C          64.2915   87.8959   14.4380 C.ar    1  UNL1        0.0202
      7 S          64.1549   85.4721   15.3637 S.O2    1  UNL1        0.0736
      8 O          62.7443   85.1856   15.7855 O.2     1  UNL1       -0.1499
      9 O          65.5656   85.7586   14.9419 O.2     1  UNL1       -0.1499
     10 N          64.4039   84.0023   15.1978 N.pl3   1  UNL1       -0.2150
     11 H          64.8938   83.5046   15.8917 H       1  UNL1        0.1737
     12 C          63.9063   83.2907   13.9747 C.ar    1  UNL1        0.0648
     13 C          64.3968   83.6997   12.6174 C.ar    1  UNL1        0.0159
     14 C          63.8992   82.9881   11.3943 C.ar    1  UNL1        0.0013
     15 C          62.9111   81.8674   11.5285 C.ar    1  UNL1        0.0001
     16 C          62.4207   81.4585   12.8857 C.ar    1  UNL1        0.0013
     17 C          62.9183   82.1701   14.1088 C.ar    1  UNL1        0.0159
     18 C          65.4345   91.3990   13.7802 C.2     1  UNL1        0.0598
     19 C          64.4281   90.3195   13.5122 C.2     1  UNL1        0.0048
     20 O          66.9632   93.3025   12.8915 O.2     1  UNL1       -0.2681
     21 C          65.8200   92.3528   12.6886 C.2     1  UNL1        0.2679
     22 N          65.0622   92.3569   11.3940 N.am    1  UNL1       -0.1934
     23 O          65.4477   93.3107   10.3024 O.3     1  UNL1       -0.2949
     24 H          64.3119   91.7336   11.2609 H       1  UNL1        0.1825
     25 H          66.2000   93.8492   10.5942 H       1  UNL1        0.2414
@<TRIPOS>BOND
     1    20    21    2
     2    21    18    1
     3    18    19    2
     4    19     1    1
     5     1     2   ar
     6     2     3   ar
     7     3     4   ar
     8     4     5   ar
     9     5     7    1
    10     7     8    2
    11     7     9    2
    12     7    10    1
    13    10    12    1
    14    12    13   ar
    15    13    14   ar
    16    14    15   ar
    17    15    16   ar
    18    16    17   ar
    19     5     6   ar
    20    21    22   am
    21    22    23    1
    22     6     1   ar
    23    17    12   ar
    24    10    11    1
    25    22    24    1
    26    23    25    1
@<TRIPOS>MOLECULE
*****
 25 26 0 0 0
SMALL
GASTEIGER

@<TRIPOS>ATOM
      1 C          64.2282   89.3635   14.7771 C.ar    1  UNL1        0.0015
      2 C          63.4775   89.8809   15.9682 C.ar    1  UNL1        0.0001
      3 C          62.9341   88.9228   16.9864 C.ar    1  UNL1        0.0014
      4 C          63.1416   87.4473   16.8136 C.ar    1  UNL1        0.0202
      5 C          63.8924   86.9299   15.6226 C.ar    1  UNL1        0.1252
      6 C          64.4357   87.8880   14.6044 C.ar    1  UNL1        0.0202
      7 S          64.0999   85.4544   15.4498 S.O2    1  UNL1        0.0736
      8 O          65.5051   85.7059   14.9892 O.2     1  UNL1       -0.1499
      9 O          62.6948   85.2029   15.9104 O.2     1  UNL1       -0.1499
     10 N          64.3074   83.9789   15.2770 N.pl3   1  UNL1       -0.2150
     11 H          64.7490   83.4576   15.9858 H       1  UNL1        0.1737
     12 C          63.8420   83.2977   14.0242 C.ar    1  UNL1        0.0648
     13 C          62.8271   82.1959   14.1024 C.ar    1  UNL1        0.0159
     14 C          62.3617   81.5147   12.8496 C.ar    1  UNL1        0.0013
     15 C          62.9111   81.9354   11.5187 C.ar    1  UNL1        0.0001
     16 C          63.9260   83.0372   11.4406 C.ar    1  UNL1        0.0013
     17 C          64.3914   83.7183   12.6934 C.ar    1  UNL1        0.0159
     18 C          65.8773   91.2643   14.1311 C.2     1  UNL1        0.0598
     19 C          64.7716   90.3216   13.7589 C.2     1  UNL1        0.0048
     20 O          67.8518   92.1202   12.6754 O.2     1  UNL1       -0.2681
     21 C          66.4206   92.2224   13.1128 C.2     1  UNL1        0.2679
     22 N          65.5327   93.2828   12.5319 N.am    1  UNL1       -0.1934
     23 O          66.0760   94.2409   11.5137 O.3     1  UNL1       -0.2949
     24 H          64.5934   93.3498   12.8190 H       1  UNL1        0.1825
     25 H          67.0095   94.0382   11.3447 H       1  UNL1        0.2414
@<TRIPOS>BOND
     1    20    21    2
     2    21    18    1
     3    18    19    2
     4    19     1    1
     5     1     2   ar
     6     2     3   ar
     7     3     4   ar
     8     4     5   ar
     9     5     7    1
    10     7     8    2
    11     7     9    2
    12     7    10    1
    13    10    12    1
    14    12    13   ar
    15    13    14   ar
    16    14    15   ar
    17    15    16   ar
    18    16    17   ar
    19     5     6   ar
    20    21    22   am
    21    22    23    1
    22     6     1   ar
    23    17    12   ar
    24    10    11    1
    25    22    24    1
    26    23    25    1
@<TRIPOS>MOLECULE
*****
 25 26 0 0 0
SMALL
GASTEIGER

@<TRIPOS>ATOM
      1 C          65.3525   92.0422   12.2490 C.ar    1  UNL1        0.0015
      2 C          65.4921   91.5547   13.6607 C.ar    1  UNL1        0.0001
      3 C          64.4711   90.6178   14.2351 C.ar    1  UNL1        0.0014
      4 C          63.3105   90.1685   13.3978 C.ar    1  UNL1        0.0202
      5 C          63.1709   90.6560   11.9862 C.ar    1  UNL1        0.1252
      6 C          64.1919   91.5929   11.4118 C.ar    1  UNL1        0.0202
      7 S          62.0103   90.2067   11.1488 S.O2    1  UNL1        0.0736
      8 O          61.3934   89.5574   12.3521 O.2     1  UNL1       -0.1499
      9 O          62.6271   90.8559    9.9455 O.2     1  UNL1       -0.1499
     10 N          60.8497   89.7574   10.3115 N.pl3   1  UNL1       -0.2150
     11 H          60.0369   90.3104   10.2595 H       1  UNL1        0.1737
     12 C          60.9275   88.4654    9.5534 C.ar    1  UNL1        0.0648
     13 C          59.8162   88.0721    8.6257 C.ar    1  UNL1        0.0159
     14 C          59.8940   86.7801    7.8676 C.ar    1  UNL1        0.0013
     15 C          61.0831   85.8814    8.0372 C.ar    1  UNL1        0.0001
     16 C          62.1942   86.2748    8.9648 C.ar    1  UNL1        0.0013
     17 C          62.1164   87.5667    9.7229 C.ar    1  UNL1        0.0159
     18 C          66.3408   93.3201   10.2143 C.2     1  UNL1        0.0598
     19 C          66.3735   92.9791   11.6747 C.2     1  UNL1        0.0048
     20 O          68.8091   93.8638    9.6126 O.2     1  UNL1       -0.2681
     21 C          67.3618   94.2570    9.6400 C.2     1  UNL1        0.2679
     22 N          66.9354   95.5871    9.0929 N.am    1  UNL1       -0.1934
     23 O          67.9564   96.5239    8.5185 O.3     1  UNL1       -0.2949
     24 H          65.9855   95.8451    9.1109 H       1  UNL1        0.1825
     25 H          68.8360   96.1193    8.5776 H       1  UNL1        0.2414
@<TRIPOS>BOND
     1    20    21    2
     2    21    18    1
     3    18    19    2
     4    19     1    1
     5     1     2   ar
     6     2     3   ar
     7     3     4   ar
     8     4     5   ar
     9     5     7    1
    10     7     8    2
    11     7     9    2
    12     7    10    1
    13    10    12    1
    14    12    13   ar
    15    13    14   ar
    16    14    15   ar
    17    15    16   ar
    18    16    17   ar
    19     5     6   ar
    20    21    22   am
    21    22    23    1
    22     6     1   ar
    23    17    12   ar
    24    10    11    1
    25    22    24    1
    26    23    25    1
@<TRIPOS>MOLECULE
*****
 25 26 0 0 0
SMALL
GASTEIGER

@<TRIPOS>ATOM
      1 C          62.8391   84.7771   10.2174 C.ar    1  UNL1        0.0015
      2 C          63.4959   83.5650    9.6263 C.ar    1  UNL1        0.0001
      3 C          64.2845   82.6371   10.5021 C.ar    1  UNL1        0.0014
      4 C          64.4163   82.9212   11.9690 C.ar    1  UNL1        0.0202
      5 C          63.7595   84.1333   12.5601 C.ar    1  UNL1        0.1252
      6 C          62.9709   85.0613   11.6843 C.ar    1  UNL1        0.0202
      7 S          63.8914   84.4176   14.0271 S.O2    1  UNL1        0.0736
      8 O          62.4010   84.5476   14.1358 O.2     1  UNL1       -0.1499
      9 O          65.3817   84.2875   13.9183 O.2     1  UNL1       -0.1499
     10 N          64.0232   84.7018   15.4940 N.pl3   1  UNL1       -0.2150
     11 H          64.3123   83.9897   16.1093 H       1  UNL1        0.1737
     12 C          63.7147   86.0709   16.0234 C.ar    1  UNL1        0.0648
     13 C          64.0928   87.2853   15.2281 C.ar    1  UNL1        0.0159
     14 C          63.7842   88.6544   15.7575 C.ar    1  UNL1        0.0013
     15 C          63.0975   88.8091   17.0822 C.ar    1  UNL1        0.0001
     16 C          62.7194   87.5948   17.8773 C.ar    1  UNL1        0.0013
     17 C          63.0280   86.2257   17.3479 C.ar    1  UNL1        0.0159
     18 C          61.0749   86.6660    9.9537 C.2     1  UNL1        0.0598
     19 C          62.0505   85.7050    9.3416 C.2     1  UNL1        0.0048
     20 O          60.5524   89.0696    9.1172 O.2     1  UNL1       -0.2681
     21 C          60.2863   87.5939    9.0779 C.2     1  UNL1        0.2679
     22 N          59.2315   87.0462    8.1627 N.am    1  UNL1       -0.1934
     23 O          58.4429   87.9741    7.2869 O.3     1  UNL1       -0.2949
     24 H          59.0568   86.0776    8.1370 H       1  UNL1        0.1825
     25 H          58.7379   88.8864    7.4341 H       1  UNL1        0.2414
@<TRIPOS>BOND
     1    20    21    2
     2    21    18    1
     3    18    19    2
     4    19     1    1
     5     1     2   ar
     6     2     3   ar
     7     3     4   ar
     8     4     5   ar
     9     5     7    1
    10     7     8    2
    11     7     9    2
    12     7    10    1
    13    10    12    1
    14    12    13   ar
    15    13    14   ar
    16    14    15   ar
    17    15    16   ar
    18    16    17   ar
    19     5     6   ar
    20    21    22   am
    21    22    23    1
    22     6     1   ar
    23    17    12   ar
    24    10    11    1
    25    22    24    1
    26    23    25    1
@<TRIPOS>MOLECULE
*****
 25 26 0 0 0
SMALL
GASTEIGER

@<TRIPOS>ATOM
      1 C          64.0263   90.7670   12.6133 C.ar    1  UNL1        0.0015
      2 C          63.8435   91.6256   11.3971 C.ar    1  UNL1        0.0001
      3 C          63.0847   91.0997   10.2149 C.ar    1  UNL1        0.0014
      4 C          62.5086   89.7152   10.2489 C.ar    1  UNL1        0.0202
      5 C          62.6913   88.8566   11.4652 C.ar    1  UNL1        0.1252
      6 C          63.4502   89.3825   12.6474 C.ar    1  UNL1        0.0202
      7 S          62.1152   87.4720   11.4993 S.O2    1  UNL1        0.0736
      8 O          61.1452   87.8490   10.4191 O.2     1  UNL1       -0.1499
      9 O          63.0853   87.0951   12.5795 O.2     1  UNL1       -0.1499
     10 N          61.5392   86.0875   11.5334 N.pl3   1  UNL1       -0.2150
     11 H          60.5764   85.9587   11.6939 H       1  UNL1        0.1737
     12 C          62.4300   84.8991   11.3230 C.ar    1  UNL1        0.0648
     13 C          63.0764   84.6733    9.9883 C.ar    1  UNL1        0.0159
     14 C          63.9672   83.4850    9.7779 C.ar    1  UNL1        0.0013
     15 C          64.2116   82.5224   10.9021 C.ar    1  UNL1        0.0001
     16 C          63.5652   82.7482   12.2367 C.ar    1  UNL1        0.0013
     17 C          62.6744   83.9366   12.4471 C.ar    1  UNL1        0.0159
     18 C          66.0686   92.0415   13.5903 C.2     1  UNL1        0.0598
     19 C          64.7851   91.2929   13.7955 C.2     1  UNL1        0.0048
     20 O          66.1740   92.6164   16.1218 O.2     1  UNL1       -0.2681
     21 C          66.8274   92.5674   14.7725 C.2     1  UNL1        0.2679
     22 N          68.2398   93.0444   14.6054 N.am    1  UNL1       -0.1934
     23 O          68.9986   93.5703   15.7876 O.3     1  UNL1       -0.2949
     24 H          68.6686   93.0123   13.7198 H       1  UNL1        0.1825
     25 H          68.4350   93.5330   16.5762 H       1  UNL1        0.2414
@<TRIPOS>BOND
     1    20    21    2
     2    21    18    1
     3    18    19    2
     4    19     1    1
     5     1     2   ar
     6     2     3   ar
     7     3     4   ar
     8     4     5   ar
     9     5     7    1
    10     7     8    2
    11     7     9    2
    12     7    10    1
    13    10    12    1
    14    12    13   ar
    15    13    14   ar
    16    14    15   ar
    17    15    16   ar
    18    16    17   ar
    19     5     6   ar
    20    21    22   am
    21    22    23    1
    22     6     1   ar
    23    17    12   ar
    24    10    11    1
    25    22    24    1
    26    23    25    1
@<TRIPOS>MOLECULE
*****
 25 26 0 0 0
SMALL
GASTEIGER

@<TRIPOS>ATOM
      1 C          59.9280   88.1656    8.2560 C.ar    1  UNL1        0.0015
      2 C          60.2620   86.7092    8.1251 C.ar    1  UNL1        0.0001
      3 C          61.1145   86.0391    9.1616 C.ar    1  UNL1        0.0014
      4 C          61.6330   86.8254   10.3289 C.ar    1  UNL1        0.0202
      5 C          61.2990   88.2818   10.4599 C.ar    1  UNL1        0.1252
      6 C          60.4465   88.9519    9.4234 C.ar    1  UNL1        0.0202
      7 S          61.8175   89.0682   11.6273 S.O2    1  UNL1        0.0736
      8 O          62.8412   88.0038   11.8898 O.2     1  UNL1       -0.1499
      9 O          60.7939   90.1327   11.3648 O.2     1  UNL1       -0.1499
     10 N          62.3360   89.8547   12.7946 N.pl3   1  UNL1       -0.2150
     11 H          61.8777   89.8043   13.6645 H       1  UNL1        0.1737
     12 C          63.5525   90.7178   12.6366 C.ar    1  UNL1        0.0648
     13 C          63.8327   91.3858   11.3230 C.ar    1  UNL1        0.0159
     14 C          65.0493   92.2489   11.1650 C.ar    1  UNL1        0.0013
     15 C          65.9857   92.4440   12.3205 C.ar    1  UNL1        0.0001
     16 C          65.7055   91.7760   13.6340 C.ar    1  UNL1        0.0013
     17 C          64.4889   90.9129   13.7920 C.ar    1  UNL1        0.0159
     18 C          59.5683   90.0725    6.5285 C.2     1  UNL1        0.0598
     19 C          59.0756   88.8357    7.2196 C.2     1  UNL1        0.0048
     20 O          59.3512   91.6019    4.4396 O.2     1  UNL1       -0.2681
     21 C          58.7158   90.7426    5.4921 C.2     1  UNL1        0.2679
     22 N          57.2278   90.5533    5.5081 N.am    1  UNL1       -0.1934
     23 O          56.3753   91.2234    4.4716 O.3     1  UNL1       -0.2949
     24 H          56.8108   89.9892    6.1988 H       1  UNL1        0.1825
     25 H          56.9390   91.7369    3.8721 H       1  UNL1        0.2414
@<TRIPOS>BOND
     1    20    21    2
     2    21    18    1
     3    18    19    2
     4    19     1    1
     5     1     2   ar
     6     2     3   ar
     7     3     4   ar
     8     4     5   ar
     9     5     7    1
    10     7     8    2
    11     7     9    2
    12     7    10    1
    13    10    12    1
    14    12    13   ar
    15    13    14   ar
    16    14    15   ar
    17    15    16   ar
    18    16    17   ar
    19     5     6   ar
    20    21    22   am
    21    22    23    1
    22     6     1   ar
    23    17    12   ar
    24    10    11    1
    25    22    24    1
    26    23    25    1
@<TRIPOS>MOLECULE
*****
 25 26 0 0 0
SMALL
GASTEIGER

@<TRIPOS>ATOM
      1 C          62.6984   90.7783   10.5623 C.ar    1  UNL1        0.0015
      2 C          63.7559   91.7446   10.1175 C.ar    1  UNL1        0.0001
      3 C          64.8045   92.2068   11.0853 C.ar    1  UNL1        0.0014
      4 C          64.7956   91.7028   12.4980 C.ar    1  UNL1        0.0202
      5 C          63.7381   90.7366   12.9429 C.ar    1  UNL1        0.1252
      6 C          62.6895   90.2743   11.9751 C.ar    1  UNL1        0.0202
      7 S          63.7292   90.2325   14.3557 S.O2    1  UNL1        0.0736
      8 O          65.1776   90.5967   14.4948 O.2     1  UNL1       -0.1499
      9 O          62.2808   89.8684   14.2166 O.2     1  UNL1       -0.1499
     10 N          63.7202   89.7285   15.7684 N.pl3   1  UNL1       -0.2150
     11 H          63.7909   90.3629   16.5179 H       1  UNL1        0.1737
     12 C          63.6035   88.2577   16.0393 C.ar    1  UNL1        0.0648
     13 C          64.2293   87.2701   15.0995 C.ar    1  UNL1        0.0159
     14 C          64.1126   85.7994   15.3704 C.ar    1  UNL1        0.0013
     15 C          63.3702   85.3163   16.5810 C.ar    1  UNL1        0.0001
     16 C          62.7445   86.3039   17.5207 C.ar    1  UNL1        0.0013
     17 C          62.8612   87.7746   17.2498 C.ar    1  UNL1        0.0159
     18 C          61.1203   88.9150    9.6750 C.2     1  UNL1        0.0598
     19 C          61.6498   90.3161    9.5945 C.2     1  UNL1        0.0048
     20 O          59.6610   89.3371    7.5673 O.2     1  UNL1       -0.2681
     21 C          60.0717   88.4527    8.7071 C.2     1  UNL1        0.2679
     22 N          59.4337   87.1061    8.8792 N.am    1  UNL1       -0.1934
     23 O          58.3851   86.6438    7.9113 O.3     1  UNL1       -0.2949
     24 H          59.7032   86.5256    9.6273 H       1  UNL1        0.1825
     25 H          58.2390   87.3295    7.2409 H       1  UNL1        0.2414
@<TRIPOS>BOND
     1    20    21    2
     2    21    18    1
     3    18    19    2
     4    19     1    1
     5     1     2   ar
     6     2     3   ar
     7     3     4   ar
     8     4     5   ar
     9     5     7    1
    10     7     8    2
    11     7     9    2
    12     7    10    1
    13    10    12    1
    14    12    13   ar
    15    13    14   ar
    16    14    15   ar
    17    15    16   ar
    18    16    17   ar
    19     5     6   ar
    20    21    22   am
    21    22    23    1
    22     6     1   ar
    23    17    12   ar
    24    10    11    1
    25    22    24    1
    26    23    25    1
@<TRIPOS>MOLECULE
*****
 25 26 0 0 0
SMALL
GASTEIGER

@<TRIPOS>ATOM
      1 C          62.2102   86.0328   10.8909 C.ar    1  UNL1        0.0015
      2 C          61.5694   86.2748    9.5564 C.ar    1  UNL1        0.0001
      3 C          61.3004   87.6771    9.0968 C.ar    1  UNL1        0.0014
      4 C          61.6722   88.8374    9.9716 C.ar    1  UNL1        0.0202
      5 C          62.3130   88.5954   11.3061 C.ar    1  UNL1        0.1252
      6 C          62.5820   87.1931   11.7657 C.ar    1  UNL1        0.0202
      7 S          62.6849   89.7557   12.1810 S.O2    1  UNL1        0.0736
      8 O          61.9878   90.6906   11.2375 O.2     1  UNL1       -0.1499
      9 O          63.3819   88.8209   13.1245 O.2     1  UNL1       -0.1499
     10 N          63.0567   90.9160   13.0559 N.pl3   1  UNL1       -0.2150
     11 H          62.3610   91.3913   13.5651 H       1  UNL1        0.1737
     12 C          64.4885   91.3521   13.1549 C.ar    1  UNL1        0.0648
     13 C          65.2859   91.0345   14.3852 C.ar    1  UNL1        0.0159
     14 C          66.7177   91.4706   14.4842 C.ar    1  UNL1        0.0013
     15 C          67.3521   92.2242   13.3529 C.ar    1  UNL1        0.0001
     16 C          66.5547   92.5417   12.1228 C.ar    1  UNL1        0.0013
     17 C          65.1229   92.1057   12.0238 C.ar    1  UNL1        0.0159
     18 C          62.7890   84.3605   12.7930 C.2     1  UNL1        0.0598
     19 C          62.4791   84.6305   11.3505 C.2     1  UNL1        0.0048
     20 O          64.2122   82.1899   12.6807 O.2     1  UNL1       -0.2681
     21 C          63.0579   82.9582   13.2527 C.2     1  UNL1        0.2679
     22 N          62.1725   82.3243   14.2844 N.am    1  UNL1       -0.1934
     23 O          62.4415   80.9220   14.7440 O.3     1  UNL1       -0.2949
     24 H          61.4149   82.8286   14.6598 H       1  UNL1        0.1825
     25 H          63.2174   80.5724   14.2786 H       1  UNL1        0.2414
@<TRIPOS>BOND
     1    20    21    2
     2    21    18    1
     3    18    19    2
     4    19     1    1
     5     1     2   ar
     6     2     3   ar
     7     3     4   ar
     8     4     5   ar
     9     5     7    1
    10     7     8    2
    11     7     9    2
    12     7    10    1
    13    10    12    1
    14    12    13   ar
    15    13    14   ar
    16    14    15   ar
    17    15    16   ar
    18    16    17   ar
    19     5     6   ar
    20    21    22   am
    21    22    23    1
    22     6     1   ar
    23    17    12   ar
    24    10    11    1
    25    22    24    1
    26    23    25    1
@<TRIPOS>MOLECULE
*****
 25 26 0 0 0
SMALL
GASTEIGER

@<TRIPOS>ATOM
      1 C          62.3124   85.7274   11.0354 C.ar    1  UNL1        0.0015
      2 C          61.8309   85.9523    9.6327 C.ar    1  UNL1        0.0001
      3 C          61.6556   87.3491    9.1148 C.ar    1  UNL1        0.0014
      4 C          61.9618   88.5210    9.9995 C.ar    1  UNL1        0.0202
      5 C          62.4433   88.2961   11.4022 C.ar    1  UNL1        0.1252
      6 C          62.6186   86.8993   11.9202 C.ar    1  UNL1        0.0202
      7 S          62.7495   89.4681   12.2870 S.O2    1  UNL1        0.0736
      8 O          63.5813   88.5849   13.1691 O.2     1  UNL1       -0.1499
      9 O          61.9177   90.3513   11.4050 O.2     1  UNL1       -0.1499
     10 N          63.0557   90.6400   13.1718 N.pl3   1  UNL1       -0.2150
     11 H          62.3466   91.0343   13.7294 H       1  UNL1        0.1737
     12 C          64.4422   91.2111   13.2070 C.ar    1  UNL1        0.0648
     13 C          64.9585   91.9996   12.0400 C.ar    1  UNL1        0.0159
     14 C          66.3451   92.5707   12.0752 C.ar    1  UNL1        0.0013
     15 C          67.2154   92.3533   13.2775 C.ar    1  UNL1        0.0001
     16 C          66.6991   91.5649   14.4445 C.ar    1  UNL1        0.0013
     17 C          65.3125   90.9938   14.4092 C.ar    1  UNL1        0.0159
     18 C          62.6907   84.0948   13.0207 C.2     1  UNL1        0.0598
     19 C          62.4877   84.3306   11.5534 C.2     1  UNL1        0.0048
     20 O          63.5520   82.4658   14.8522 O.2     1  UNL1       -0.2681
     21 C          62.8660   82.6980   13.5387 C.2     1  UNL1        0.2679
     22 N          62.3553   81.5335   12.7430 N.am    1  UNL1       -0.1934
     23 O          62.5306   80.1367   13.2609 O.3     1  UNL1       -0.2949
     24 H          61.9051   81.6859   11.8808 H       1  UNL1        0.1825
     25 H          62.9896   80.1638   14.1150 H       1  UNL1        0.2414
@<TRIPOS>BOND
     1    20    21    2
     2    21    18    1
     3    18    19    2
     4    19     1    1
     5     1     2   ar
     6     2     3   ar
     7     3     4   ar
     8     4     5   ar
     9     5     7    1
    10     7     8    2
    11     7     9    2
    12     7    10    1
    13    10    12    1
    14    12    13   ar
    15    13    14   ar
    16    14    15   ar
    17    15    16   ar
    18    16    17   ar
    19     5     6   ar
    20    21    22   am
    21    22    23    1
    22     6     1   ar
    23    17    12   ar
    24    10    11    1
    25    22    24    1
    26    23    25    1
