@<TRIPOS>MOLECULE
*****
 33 37 0 0 0
SMALL
GASTEIGER

@<TRIPOS>ATOM
      1 N          64.0717   85.7488   14.3143 N.3     1  UNL1       -0.2726
      2 C          64.6284   84.3838   14.5917 C.3     1  UNL1        0.0721
      3 C          64.2476   83.4874   13.4509 C.3     1  UNL1        0.0190
      4 C          63.4555   84.2982   12.4686 C.3     1  UNL1        0.0201
      5 C          63.2304   83.1835   11.4905 C.3     1  UNL1        0.0061
      6 C          62.6737   84.5485   11.2131 C.3     1  UNL1        0.0237
      7 C          63.3468   85.6959   13.0021 C.3     1  UNL1        0.0724
      8 C          61.9009   85.4810   10.3281 C.ar    1  UNL1       -0.0225
      9 C          61.0179   86.5310   10.9344 C.ar    1  UNL1       -0.0043
     10 C          60.2451   87.4636   10.0495 C.ar    1  UNL1        0.0035
     11 C          60.3554   87.3460    8.5582 C.ar    1  UNL1        0.0714
     12 C          61.2384   86.2960    7.9518 C.ar    1  UNL1        0.0035
     13 C          62.0112   85.3635    8.8368 C.ar    1  UNL1       -0.0043
     14 C          59.5826   88.2786    7.6732 C.3     1  UNL1        0.4186
     15 F          58.8098   89.2111    6.7882 F       1  UNL1       -0.1659
     16 F          60.3502   89.4415    8.2284 F       1  UNL1       -0.1659
     17 F          58.8151   87.1156    7.1180 F       1  UNL1       -0.1659
     18 C          64.2148   86.9549   15.1945 C.3     1  UNL1        0.0730
     19 C          64.5260   88.2919   14.5899 C.3     1  UNL1        0.0294
     20 C          63.7257   89.4979   14.9839 C.3     1  UNL1        0.0666
     21 S          64.3002   90.8715   14.8020 S.3     1  UNL1       -0.0756
     22 C          65.4256   92.7005   11.5688 C.ar    1  UNL1        0.2029
     23 N          64.3852   91.7661   11.0261 N.ar    1  UNL1       -0.1250
     24 N          63.8370   90.9672   12.1712 N.ar    1  UNL1       -0.1220
     25 C          64.5386   91.4079   13.4216 C.ar    1  UNL1        0.1933
     26 N          65.5204   92.4791   13.0494 N.ar    1  UNL1       -0.2860
     27 C          66.4361   93.2020   13.9921 C.3     1  UNL1        0.1341
     28 C          68.1285   92.0340    9.8659 C.3     1  UNL1        0.0556
     29 C          67.4724   93.3773    9.9883 C.ar    1  UNL1        0.1001
     30 N          67.9433   94.6502    9.3495 N.ar    1  UNL1       -0.2085
     31 C          66.9921   95.7432    9.7374 C.ar    1  UNL1        0.2849
     32 O          65.9331   95.1458   10.6160 O.2     1  UNL1       -0.4283
     33 C          66.2300   93.6837   10.7710 C.ar    1  UNL1        0.1964
@<TRIPOS>BOND
     1    28    29    1
     2    29    30   ar
     3    30    31   ar
     4    31    32   ar
     5    32    33   ar
     6    33    22    1
     7    22    23   ar
     8    23    24   ar
     9    24    25   ar
    10    25    21    1
    11    21    20    1
    12    20    19    1
    13    19    18    1
    14    18     1    1
    15     1     2    1
    16     2     3    1
    17     4     3    1
    18     4     5    1
    19     5     6    1
    20     6     8    1
    21     8     9   ar
    22     9    10   ar
    23    10    11   ar
    24    11    14    1
    25    14    15    1
    26    14    16    1
    27    14    17    1
    28    11    12   ar
    29    12    13   ar
    30     4     7    1
    31    25    26   ar
    32    26    27    1
    33    33    29   ar
    34    26    22   ar
    35     7     1    1
    36     6     4    1
    37    13     8   ar
@<TRIPOS>MOLECULE
*****
 33 37 0 0 0
SMALL
GASTEIGER

@<TRIPOS>ATOM
      1 N          64.3411   85.6681   15.1202 N.3     1  UNL1       -0.2726
      2 C          63.6468   85.4350   16.4292 C.3     1  UNL1        0.0721
      3 C          63.1992   86.7647   16.9597 C.3     1  UNL1        0.0190
      4 C          63.6168   87.8197   15.9786 C.3     1  UNL1        0.0201
      5 C          63.0575   88.9795   16.7479 C.3     1  UNL1        0.0061
      6 C          63.7518   89.2127   15.4388 C.3     1  UNL1        0.0237
      7 C          64.3226   87.1419   14.8417 C.3     1  UNL1        0.0724
      8 C          64.2305   90.1515   14.3714 C.ar    1  UNL1       -0.0225
      9 C          63.4658   90.2798   13.0874 C.ar    1  UNL1       -0.0043
     10 C          63.9445   91.2187   12.0200 C.ar    1  UNL1        0.0035
     11 C          65.1879   92.0292   12.2366 C.ar    1  UNL1        0.0714
     12 C          65.9526   91.9009   13.5207 C.ar    1  UNL1        0.0035
     13 C          65.4739   90.9621   14.5881 C.ar    1  UNL1       -0.0043
     14 C          65.6667   92.9680   11.1692 C.3     1  UNL1        0.4186
     15 F          66.1454   93.9069   10.1018 F       1  UNL1       -0.1659
     16 F          64.5786   92.4852   10.2565 F       1  UNL1       -0.1659
     17 F          66.7547   93.4509   12.0819 F       1  UNL1       -0.1659
     18 C          64.9474   84.6128   14.2435 C.3     1  UNL1        0.0730
     19 C          64.2383   83.3064   14.0425 C.3     1  UNL1        0.0294
     20 C          63.8759   82.8547   12.6587 C.3     1  UNL1        0.0666
     21 S          63.9585   83.8161   11.5103 S.3     1  UNL1       -0.0756
     22 C          61.3496   86.4172   10.2882 C.ar    1  UNL1        0.2029
     23 N          61.1439   86.4758   11.7729 N.ar    1  UNL1       -0.1250
     24 N          62.0962   85.5086   12.4114 N.ar    1  UNL1       -0.1220
     25 C          62.8904   84.8521   11.3213 C.ar    1  UNL1        0.1933
     26 N          62.4291   85.4137   10.0091 N.ar    1  UNL1       -0.2860
     27 C          62.9548   85.0378    8.6555 C.3     1  UNL1        0.1341
     28 C          61.4545   89.6612    9.9491 C.3     1  UNL1        0.0556
     29 C          60.6546   88.7121    9.1069 C.ar    1  UNL1        0.1001
     30 N          59.7626   89.0874    7.9608 N.ar    1  UNL1       -0.2085
     31 C          59.1630   87.8282    7.4084 C.ar    1  UNL1        0.2849
     32 O          59.6846   86.6747    8.2131 O.2     1  UNL1       -0.4283
     33 C          60.6064   87.2210    9.2627 C.ar    1  UNL1        0.1964
@<TRIPOS>BOND
     1    28    29    1
     2    29    30   ar
     3    30    31   ar
     4    31    32   ar
     5    32    33   ar
     6    33    22    1
     7    22    23   ar
     8    23    24   ar
     9    24    25   ar
    10    25    21    1
    11    21    20    1
    12    20    19    1
    13    19    18    1
    14    18     1    1
    15     1     2    1
    16     2     3    1
    17     4     3    1
    18     4     5    1
    19     5     6    1
    20     6     8    1
    21     8     9   ar
    22     9    10   ar
    23    10    11   ar
    24    11    14    1
    25    14    15    1
    26    14    16    1
    27    14    17    1
    28    11    12   ar
    29    12    13   ar
    30     4     7    1
    31    25    26   ar
    32    26    27    1
    33    33    29   ar
    34    26    22   ar
    35     7     1    1
    36     6     4    1
    37    13     8   ar
@<TRIPOS>MOLECULE
*****
 33 37 0 0 0
SMALL
GASTEIGER

@<TRIPOS>ATOM
      1 N          62.1391   86.3971    8.9377 N.3     1  UNL1       -0.2726
      2 C          60.6901   86.3022    8.5616 C.3     1  UNL1        0.0721
      3 C          59.9977   87.5318    9.0703 C.3     1  UNL1        0.0190
      4 C          61.0188   88.3866    9.7608 C.3     1  UNL1        0.0201
      5 C          60.0715   89.4855   10.1417 C.3     1  UNL1        0.0061
      6 C          61.5205   89.5804   10.5178 C.3     1  UNL1        0.0237
      7 C          62.3422   87.6853    9.6788 C.3     1  UNL1        0.0724
      8 C          62.6467   90.3244   11.1721 C.ar    1  UNL1       -0.0225
      9 C          63.4069   91.3631   10.4018 C.ar    1  UNL1       -0.0043
     10 C          64.5331   92.1071   11.0560 C.ar    1  UNL1        0.0035
     11 C          64.8991   91.8124   12.4805 C.ar    1  UNL1        0.0714
     12 C          64.1389   90.7738   13.2508 C.ar    1  UNL1        0.0035
     13 C          63.0127   90.0298   12.5966 C.ar    1  UNL1       -0.0043
     14 C          66.0254   92.5565   13.1348 C.3     1  UNL1        0.4186
     15 F          67.1517   93.3005   13.7891 F       1  UNL1       -0.1659
     16 F          65.7597   93.7375   12.2490 F       1  UNL1       -0.1659
     17 F          66.2910   91.3754   14.0205 F       1  UNL1       -0.1659
     18 C          63.1989   85.3820    8.6273 C.3     1  UNL1        0.0730
     19 C          63.0408   83.9656    9.0950 C.3     1  UNL1        0.0294
     20 C          63.9717   83.4097   10.1316 C.3     1  UNL1        0.0666
     21 S          63.4515   82.4740   11.1822 S.3     1  UNL1       -0.0756
     22 C          63.3807   84.1005   14.7058 C.ar    1  UNL1        0.2029
     23 N          63.9708   82.7573   15.0183 N.ar    1  UNL1       -0.1250
     24 N          64.0691   81.9845   13.7364 N.ar    1  UNL1       -0.1220
     25 C          63.5398   82.8501   12.6316 C.ar    1  UNL1        0.1933
     26 N          63.1143   84.1578   13.2307 N.ar    1  UNL1       -0.2860
     27 C          62.5258   85.3190   12.4855 C.3     1  UNL1        0.1341
     28 C          64.6399   87.1103   14.6370 C.3     1  UNL1        0.0556
     29 C          63.6841   86.5777   15.6631 C.ar    1  UNL1        0.1001
     30 N          63.1392   87.3350   16.8377 N.ar    1  UNL1       -0.2085
     31 C          62.2237   86.4195   17.5952 C.ar    1  UNL1        0.2849
     32 O          62.2027   85.0965   16.8888 O.2     1  UNL1       -0.4283
     33 C          63.1053   85.1942   15.6947 C.ar    1  UNL1        0.1964
@<TRIPOS>BOND
     1    28    29    1
     2    29    30   ar
     3    30    31   ar
     4    31    32   ar
     5    32    33   ar
     6    33    22    1
     7    22    23   ar
     8    23    24   ar
     9    24    25   ar
    10    25    21    1
    11    21    20    1
    12    20    19    1
    13    19    18    1
    14    18     1    1
    15     1     2    1
    16     2     3    1
    17     4     3    1
    18     4     5    1
    19     5     6    1
    20     6     8    1
    21     8     9   ar
    22     9    10   ar
    23    10    11   ar
    24    11    14    1
    25    14    15    1
    26    14    16    1
    27    14    17    1
    28    11    12   ar
    29    12    13   ar
    30     4     7    1
    31    25    26   ar
    32    26    27    1
    33    33    29   ar
    34    26    22   ar
    35     7     1    1
    36     6     4    1
    37    13     8   ar
@<TRIPOS>MOLECULE
*****
 33 37 0 0 0
SMALL
GASTEIGER

@<TRIPOS>ATOM
      1 N          64.0875   85.0867   14.6317 N.3     1  UNL1       -0.2726
      2 C          64.5359   83.6643   14.7921 C.3     1  UNL1        0.0721
      3 C          64.1366   82.9105   13.5582 C.3     1  UNL1        0.0190
      4 C          63.4414   83.8670   12.6353 C.3     1  UNL1        0.0201
      5 C          63.1758   82.8697   11.5468 C.3     1  UNL1        0.0061
      6 C          62.7274   84.2921   11.3865 C.3     1  UNL1        0.0237
      7 C          63.4110   85.2120   13.2988 C.3     1  UNL1        0.0724
      8 C          62.0563   85.3587   10.5729 C.ar    1  UNL1       -0.0225
      9 C          61.1556   86.3556   11.2400 C.ar    1  UNL1       -0.0043
     10 C          60.4845   87.4222   10.4264 C.ar    1  UNL1        0.0035
     11 C          60.7141   87.4919    8.9458 C.ar    1  UNL1        0.0714
     12 C          61.6148   86.4950    8.2786 C.ar    1  UNL1        0.0035
     13 C          62.2859   85.4284    9.0922 C.ar    1  UNL1       -0.0043
     14 C          60.0430   88.5586    8.1322 C.3     1  UNL1        0.4186
     15 F          59.3719   89.6253    7.3186 F       1  UNL1       -0.1659
     16 F          59.1922   87.5168    7.4682 F       1  UNL1       -0.1659
     17 F          60.8938   89.6003    8.7962 F       1  UNL1       -0.1659
     18 C          64.2814   86.1901   15.6292 C.3     1  UNL1        0.0730
     19 C          63.2989   86.3709   16.7480 C.3     1  UNL1        0.0294
     20 C          63.0371   87.7399   17.3025 C.3     1  UNL1        0.0666
     21 S          62.4519   88.8056   16.4239 S.3     1  UNL1       -0.0756
     22 C          64.7255   91.3482   14.5715 C.ar    1  UNL1        0.2029
     23 N          64.5276   92.0411   15.8871 N.ar    1  UNL1       -0.1250
     24 N          63.6518   91.1730   16.7411 N.ar    1  UNL1       -0.1220
     25 C          63.3085   89.9435   15.9534 C.ar    1  UNL1        0.1933
     26 N          63.9720   90.0518   14.6125 N.ar    1  UNL1       -0.2860
     27 C          63.8955   89.0412   13.5067 C.3     1  UNL1        0.1341
     28 C          67.9306   91.9617   14.5987 C.3     1  UNL1        0.0556
     29 C          67.0080   92.1436   13.4301 C.ar    1  UNL1        0.1001
     30 N          67.3965   92.6394   12.0688 N.ar    1  UNL1       -0.2085
     31 C          66.1635   92.6639   11.2149 C.ar    1  UNL1        0.2849
     32 O          65.0128   92.1832   12.0485 O.2     1  UNL1       -0.4283
     33 C          65.5348   91.8616   13.4176 C.ar    1  UNL1        0.1964
@<TRIPOS>BOND
     1    28    29    1
     2    29    30   ar
     3    30    31   ar
     4    31    32   ar
     5    32    33   ar
     6    33    22    1
     7    22    23   ar
     8    23    24   ar
     9    24    25   ar
    10    25    21    1
    11    21    20    1
    12    20    19    1
    13    19    18    1
    14    18     1    1
    15     1     2    1
    16     2     3    1
    17     4     3    1
    18     4     5    1
    19     5     6    1
    20     6     8    1
    21     8     9   ar
    22     9    10   ar
    23    10    11   ar
    24    11    14    1
    25    14    15    1
    26    14    16    1
    27    14    17    1
    28    11    12   ar
    29    12    13   ar
    30     4     7    1
    31    25    26   ar
    32    26    27    1
    33    33    29   ar
    34    26    22   ar
    35     7     1    1
    36     6     4    1
    37    13     8   ar
@<TRIPOS>MOLECULE
*****
 33 37 0 0 0
SMALL
GASTEIGER

@<TRIPOS>ATOM
      1 N          64.3974   85.9369   15.1111 N.3     1  UNL1       -0.2726
      2 C          63.5851   85.6953   16.3488 C.3     1  UNL1        0.0721
      3 C          63.0983   87.0226   16.8500 C.3     1  UNL1        0.0190
      4 C          63.6096   88.0845   15.9221 C.3     1  UNL1        0.0201
      5 C          62.9888   89.2403   16.6491 C.3     1  UNL1        0.0061
      6 C          63.8010   89.4818   15.4114 C.3     1  UNL1        0.0237
      7 C          64.4125   87.4134   14.8474 C.3     1  UNL1        0.0724
      8 C          64.3805   90.4280   14.4020 C.ar    1  UNL1       -0.0225
      9 C          65.6348   91.1870   14.7190 C.ar    1  UNL1       -0.0043
     10 C          66.2143   92.1332   13.7096 C.ar    1  UNL1        0.0035
     11 C          65.5394   92.3204   12.3832 C.ar    1  UNL1        0.0714
     12 C          64.2850   91.5614   12.0662 C.ar    1  UNL1        0.0035
     13 C          63.7056   90.6152   13.0756 C.ar    1  UNL1       -0.0043
     14 C          66.1188   93.2665   11.3738 C.3     1  UNL1        0.4186
     15 F          66.6983   94.2128   10.3643 F       1  UNL1       -0.1659
     16 F          66.1438   92.1652   10.3557 F       1  UNL1       -0.1659
     17 F          66.0939   94.3679   12.3918 F       1  UNL1       -0.1659
     18 C          65.0755   84.8863   14.2826 C.3     1  UNL1        0.0730
     19 C          64.3586   83.6096   13.9569 C.3     1  UNL1        0.0294
     20 C          64.6025   82.9262   12.6441 C.3     1  UNL1        0.0666
     21 S          63.4871   82.7910   11.6503 S.3     1  UNL1       -0.0756
     22 C          62.4289   86.0038    9.7466 C.ar    1  UNL1        0.2029
     23 N          63.1050   85.2290    8.6544 N.ar    1  UNL1       -0.1250
     24 N          63.5836   83.9312    9.2346 N.ar    1  UNL1       -0.1220
     25 C          63.2034   83.9039   10.6854 C.ar    1  UNL1        0.1933
     26 N          62.4898   85.1847   11.0018 N.ar    1  UNL1       -0.2860
     27 C          61.9345   85.5776   12.3387 C.3     1  UNL1        0.1341
     28 C          59.6790   86.6892    8.1286 C.3     1  UNL1        0.0556
     29 C          60.5381   87.6745    8.8642 C.ar    1  UNL1        0.1001
     30 N          60.2841   89.1478    8.9852 N.ar    1  UNL1       -0.2085
     31 C          61.3911   89.7434    9.8037 C.ar    1  UNL1        0.2849
     32 O          62.3293   88.6381   10.1885 O.2     1  UNL1       -0.4283
     33 C          61.8021   87.3595    9.6079 C.ar    1  UNL1        0.1964
@<TRIPOS>BOND
     1    28    29    1
     2    29    30   ar
     3    30    31   ar
     4    31    32   ar
     5    32    33   ar
     6    33    22    1
     7    22    23   ar
     8    23    24   ar
     9    24    25   ar
    10    25    21    1
    11    21    20    1
    12    20    19    1
    13    19    18    1
    14    18     1    1
    15     1     2    1
    16     2     3    1
    17     4     3    1
    18     4     5    1
    19     5     6    1
    20     6     8    1
    21     8     9   ar
    22     9    10   ar
    23    10    11   ar
    24    11    14    1
    25    14    15    1
    26    14    16    1
    27    14    17    1
    28    11    12   ar
    29    12    13   ar
    30     4     7    1
    31    25    26   ar
    32    26    27    1
    33    33    29   ar
    34    26    22   ar
    35     7     1    1
    36     6     4    1
    37    13     8   ar
@<TRIPOS>MOLECULE
*****
 33 37 0 0 0
SMALL
GASTEIGER

@<TRIPOS>ATOM
      1 N          62.3294   85.6417    9.4897 N.3     1  UNL1       -0.2726
      2 C          62.9279   84.5359    8.6719 C.3     1  UNL1        0.0721
      3 C          63.6881   83.6336    9.5982 C.3     1  UNL1        0.0190
      4 C          63.5594   84.1819   10.9885 C.3     1  UNL1        0.0201
      5 C          64.3825   83.1186   11.6532 C.3     1  UNL1        0.0061
      6 C          63.7839   84.2244   12.4710 C.3     1  UNL1        0.0237
      7 C          62.7196   85.4230   10.9214 C.3     1  UNL1        0.0724
      8 C          63.5679   84.8874   13.7990 C.ar    1  UNL1       -0.0225
      9 C          64.2758   86.1701   14.1209 C.ar    1  UNL1       -0.0043
     10 C          64.0598   86.8332   15.4489 C.ar    1  UNL1        0.0035
     11 C          63.1359   86.2135   16.4551 C.ar    1  UNL1        0.0714
     12 C          62.4280   84.9308   16.1333 C.ar    1  UNL1        0.0035
     13 C          62.6440   84.2678   14.8052 C.ar    1  UNL1       -0.0043
     14 C          62.9200   86.8765   17.7832 C.3     1  UNL1        0.4186
     15 F          62.7040   87.5396   19.1113 F       1  UNL1       -0.1659
     16 F          62.3990   85.5860   18.3427 F       1  UNL1       -0.1659
     17 F          63.4409   88.1670   17.2236 F       1  UNL1       -0.1659
     18 C          61.4882   86.7685    8.9674 C.3     1  UNL1        0.0730
     19 C          61.2520   87.9834    9.8149 C.3     1  UNL1        0.0294
     20 C          62.3226   89.0258    9.9466 C.3     1  UNL1        0.0666
     21 S          62.1321   90.1825   10.8825 S.3     1  UNL1       -0.0756
     22 C          65.0915   91.8956   12.7190 C.ar    1  UNL1        0.2029
     23 N          65.1894   92.5253   11.3610 N.ar    1  UNL1       -0.1250
     24 N          64.0928   91.9602   10.5078 N.ar    1  UNL1       -0.1220
     25 C          63.3170   90.9812   11.3384 C.ar    1  UNL1        0.1933
     26 N          63.9342   90.9413   12.7050 N.ar    1  UNL1       -0.2860
     27 C          63.4749   90.0956   13.8555 C.3     1  UNL1        0.1341
     28 C          68.3481   91.6858   12.7197 C.3     1  UNL1        0.0556
     29 C          67.4895   92.0753   13.8863 C.ar    1  UNL1        0.1001
     30 N          67.9769   92.4367   15.2580 N.ar    1  UNL1       -0.2085
     31 C          66.7813   92.7566   16.1055 C.ar    1  UNL1        0.2849
     32 O          65.5549   92.5928   15.2575 O.2     1  UNL1       -0.4283
     33 C          65.9926   92.1717   13.8860 C.ar    1  UNL1        0.1964
@<TRIPOS>BOND
     1    28    29    1
     2    29    30   ar
     3    30    31   ar
     4    31    32   ar
     5    32    33   ar
     6    33    22    1
     7    22    23   ar
     8    23    24   ar
     9    24    25   ar
    10    25    21    1
    11    21    20    1
    12    20    19    1
    13    19    18    1
    14    18     1    1
    15     1     2    1
    16     2     3    1
    17     4     3    1
    18     4     5    1
    19     5     6    1
    20     6     8    1
    21     8     9   ar
    22     9    10   ar
    23    10    11   ar
    24    11    14    1
    25    14    15    1
    26    14    16    1
    27    14    17    1
    28    11    12   ar
    29    12    13   ar
    30     4     7    1
    31    25    26   ar
    32    26    27    1
    33    33    29   ar
    34    26    22   ar
    35     7     1    1
    36     6     4    1
    37    13     8   ar
@<TRIPOS>MOLECULE
*****
 33 37 0 0 0
SMALL
GASTEIGER

@<TRIPOS>ATOM
      1 N          62.1577   89.7249   11.5457 N.3     1  UNL1       -0.2726
      2 C          61.5740   90.2990   10.2888 C.3     1  UNL1        0.0721
      3 C          61.3094   89.1666    9.3414 C.3     1  UNL1        0.0190
      4 C          61.7295   87.8927   10.0128 C.3     1  UNL1        0.0201
      5 C          61.3609   86.9870    8.8753 C.3     1  UNL1        0.0061
      6 C          61.9446   86.4130   10.1322 C.3     1  UNL1        0.0237
      7 C          62.2538   88.2378   11.3751 C.3     1  UNL1        0.0724
      8 C          62.4058   85.2273   10.9268 C.ar    1  UNL1       -0.0225
      9 C          62.1376   85.1623   12.4012 C.ar    1  UNL1       -0.0043
     10 C          62.5988   83.9766   13.1958 C.ar    1  UNL1        0.0035
     11 C          63.3281   82.8559   12.5160 C.ar    1  UNL1        0.0714
     12 C          63.5963   82.9209   11.0416 C.ar    1  UNL1        0.0035
     13 C          63.1351   84.1066   10.2470 C.ar    1  UNL1       -0.0043
     14 C          63.7893   81.6702   13.3106 C.3     1  UNL1        0.4186
     15 F          64.2505   80.4845   14.1053 F       1  UNL1       -0.1659
     16 F          63.5578   80.7841   12.1227 F       1  UNL1       -0.1659
     17 F          64.0207   82.5563   14.4986 F       1  UNL1       -0.1659
     18 C          62.5725   90.5017   12.7601 C.3     1  UNL1        0.0730
     19 C          63.6010   89.9385   13.6954 C.3     1  UNL1        0.0294
     20 C          64.4039   90.8568   14.5684 C.3     1  UNL1        0.0666
     21 S          65.7821   91.2751   14.1494 S.3     1  UNL1       -0.0756
     22 C          66.1431   94.4453   11.9390 C.ar    1  UNL1        0.2029
     23 N          66.5430   94.9810   13.2819 N.ar    1  UNL1       -0.1250
     24 N          66.4564   93.8587   14.2733 N.ar    1  UNL1       -0.1220
     25 C          66.0030   92.6293   13.5432 C.ar    1  UNL1        0.1933
     26 N          65.8094   92.9917   12.1006 N.ar    1  UNL1       -0.2860
     27 C          65.3608   92.0637   11.0109 C.3     1  UNL1        0.1341
     28 C          67.9906   93.9349    9.2979 C.3     1  UNL1        0.0556
     29 C          66.9360   94.9913    9.4454 C.ar    1  UNL1        0.1001
     30 N          66.5454   95.9986    8.4049 N.ar    1  UNL1       -0.2085
     31 C          65.4548   96.8558    8.9758 C.ar    1  UNL1        0.2849
     32 O          65.1713   96.3782   10.3692 O.2     1  UNL1       -0.4283
     33 C          66.0868   95.2259   10.6594 C.ar    1  UNL1        0.1964
@<TRIPOS>BOND
     1    28    29    1
     2    29    30   ar
     3    30    31   ar
     4    31    32   ar
     5    32    33   ar
     6    33    22    1
     7    22    23   ar
     8    23    24   ar
     9    24    25   ar
    10    25    21    1
    11    21    20    1
    12    20    19    1
    13    19    18    1
    14    18     1    1
    15     1     2    1
    16     2     3    1
    17     4     3    1
    18     4     5    1
    19     5     6    1
    20     6     8    1
    21     8     9   ar
    22     9    10   ar
    23    10    11   ar
    24    11    14    1
    25    14    15    1
    26    14    16    1
    27    14    17    1
    28    11    12   ar
    29    12    13   ar
    30     4     7    1
    31    25    26   ar
    32    26    27    1
    33    33    29   ar
    34    26    22   ar
    35     7     1    1
    36     6     4    1
    37    13     8   ar
@<TRIPOS>MOLECULE
*****
 33 37 0 0 0
SMALL
GASTEIGER

@<TRIPOS>ATOM
      1 N          63.3589   90.3595   14.9083 N.3     1  UNL1       -0.2726
      2 C          64.4737   91.3622   14.9516 C.3     1  UNL1        0.0721
      3 C          64.8003   91.7533   13.5408 C.3     1  UNL1        0.0190
      4 C          63.8873   90.9924   12.6256 C.3     1  UNL1        0.0201
      5 C          64.4285   91.5678   11.3505 C.3     1  UNL1        0.0061
      6 C          63.3137   90.5652   11.3072 C.3     1  UNL1        0.0237
      7 C          62.9965   90.1310   13.4708 C.3     1  UNL1        0.0724
      8 C          62.3388   89.7396   10.5210 C.ar    1  UNL1       -0.0225
      9 C          61.0225   90.3268   10.1055 C.ar    1  UNL1       -0.0043
     10 C          60.0477   89.5013    9.3193 C.ar    1  UNL1        0.0035
     11 C          60.3892   88.0885    8.9486 C.ar    1  UNL1        0.0714
     12 C          61.7054   87.5013    9.3641 C.ar    1  UNL1        0.0035
     13 C          62.6803   88.3268   10.1503 C.ar    1  UNL1       -0.0043
     14 C          59.4143   87.2629    8.1624 C.3     1  UNL1        0.4186
     15 F          58.4394   86.4373    7.3762 F       1  UNL1       -0.1659
     16 F          58.9335   88.4986    7.4611 F       1  UNL1       -0.1659
     17 F          59.8952   86.0273    8.8637 F       1  UNL1       -0.1659
     18 C          62.7188   89.7010   16.0943 C.3     1  UNL1        0.0730
     19 C          63.4473   88.6194   16.8355 C.3     1  UNL1        0.0294
     20 C          63.4162   87.2089   16.3259 C.3     1  UNL1        0.0666
     21 S          64.2011   86.8356   15.1035 S.3     1  UNL1       -0.0756
     22 C          63.0030   83.7184   13.1252 C.ar    1  UNL1        0.2029
     23 N          62.6146   84.8234   12.1881 N.ar    1  UNL1       -0.1250
     24 N          63.0161   86.1256   12.8151 N.ar    1  UNL1       -0.1220
     25 C          63.6527   85.8254   14.1397 C.ar    1  UNL1        0.1933
     26 N          63.6446   84.3378   14.3314 N.ar    1  UNL1       -0.2860
     27 C          64.1835   83.5991   15.5205 C.3     1  UNL1        0.1341
     28 C          63.7952   82.0614   10.4277 C.3     1  UNL1        0.0556
     29 C          63.1518   81.4901   11.6564 C.ar    1  UNL1        0.1001
     30 N          62.7596   80.0568   11.8610 N.ar    1  UNL1       -0.2085
     31 C          62.1531   79.9326   13.2272 C.ar    1  UNL1        0.2849
     32 O          62.1704   81.2892   13.8671 O.2     1  UNL1       -0.4283
     33 C          62.7877   82.2517   12.8963 C.ar    1  UNL1        0.1964
@<TRIPOS>BOND
     1    28    29    1
     2    29    30   ar
     3    30    31   ar
     4    31    32   ar
     5    32    33   ar
     6    33    22    1
     7    22    23   ar
     8    23    24   ar
     9    24    25   ar
    10    25    21    1
    11    21    20    1
    12    20    19    1
    13    19    18    1
    14    18     1    1
    15     1     2    1
    16     2     3    1
    17     4     3    1
    18     4     5    1
    19     5     6    1
    20     6     8    1
    21     8     9   ar
    22     9    10   ar
    23    10    11   ar
    24    11    14    1
    25    14    15    1
    26    14    16    1
    27    14    17    1
    28    11    12   ar
    29    12    13   ar
    30     4     7    1
    31    25    26   ar
    32    26    27    1
    33    33    29   ar
    34    26    22   ar
    35     7     1    1
    36     6     4    1
    37    13     8   ar
@<TRIPOS>MOLECULE
*****
 33 37 0 0 0
SMALL
GASTEIGER

@<TRIPOS>ATOM
      1 N          63.3547   84.1358    9.8200 N.3     1  UNL1       -0.2726
      2 C          63.6954   82.7382    9.3950 C.3     1  UNL1        0.0721
      3 C          63.9983   81.9397   10.6281 C.3     1  UNL1        0.0190
      4 C          63.8449   82.8438   11.8152 C.3     1  UNL1        0.0201
      5 C          64.1953   81.8111   12.8451 C.3     1  UNL1        0.0061
      6 C          63.8546   83.2087   13.2701 C.3     1  UNL1        0.0237
      7 C          63.4471   84.2011   11.3157 C.3     1  UNL1        0.0724
      8 C          63.6635   84.2263   14.3554 C.ar    1  UNL1       -0.0225
      9 C          64.5911   85.4010   14.4539 C.ar    1  UNL1       -0.0043
     10 C          64.3999   86.4186   15.5393 C.ar    1  UNL1        0.0035
     11 C          63.2812   86.2614   16.5261 C.ar    1  UNL1        0.0714
     12 C          62.3537   85.0867   16.4276 C.ar    1  UNL1        0.0035
     13 C          62.5448   84.0692   15.3423 C.ar    1  UNL1       -0.0043
     14 C          63.0901   87.2790   17.6114 C.3     1  UNL1        0.4186
     15 F          62.8990   88.2967   18.6968 F       1  UNL1       -0.1659
     16 F          63.4613   88.3713   16.6527 F       1  UNL1       -0.1659
     17 F          62.7190   86.1868   18.5701 F       1  UNL1       -0.1659
     18 C          62.9863   85.2693    8.9092 C.3     1  UNL1        0.0730
     19 C          61.8418   86.1727    9.2612 C.3     1  UNL1        0.0294
     20 C          62.0792   87.6398    9.4641 C.3     1  UNL1        0.0666
     21 S          61.6126   88.3080   10.7234 S.3     1  UNL1       -0.0756
     22 C          64.1497   90.6043   12.5552 C.ar    1  UNL1        0.2029
     23 N          64.1058   89.4245   13.4806 N.ar    1  UNL1       -0.1250
     24 N          63.1501   88.4208   12.9070 N.ar    1  UNL1       -0.1220
     25 C          62.6033   88.9801   11.6272 C.ar    1  UNL1        0.1933
     26 N          63.2210   90.3296   11.4097 N.ar    1  UNL1       -0.2860
     27 C          62.9566   91.2438   10.2503 C.3     1  UNL1        0.1341
     28 C          65.3465   91.7013   15.3861 C.3     1  UNL1        0.0556
     29 C          65.5271   92.3457   14.0437 C.ar    1  UNL1        0.1001
     30 N          66.2895   93.6074   13.7667 N.ar    1  UNL1       -0.2085
     31 C          66.2106   93.8830   12.2944 C.ar    1  UNL1        0.2849
     32 O          65.3994   92.7916   11.6613 O.2     1  UNL1       -0.4283
     33 C          64.9770   91.8415   12.7425 C.ar    1  UNL1        0.1964
@<TRIPOS>BOND
     1    28    29    1
     2    29    30   ar
     3    30    31   ar
     4    31    32   ar
     5    32    33   ar
     6    33    22    1
     7    22    23   ar
     8    23    24   ar
     9    24    25   ar
    10    25    21    1
    11    21    20    1
    12    20    19    1
    13    19    18    1
    14    18     1    1
    15     1     2    1
    16     2     3    1
    17     4     3    1
    18     4     5    1
    19     5     6    1
    20     6     8    1
    21     8     9   ar
    22     9    10   ar
    23    10    11   ar
    24    11    14    1
    25    14    15    1
    26    14    16    1
    27    14    17    1
    28    11    12   ar
    29    12    13   ar
    30     4     7    1
    31    25    26   ar
    32    26    27    1
    33    33    29   ar
    34    26    22   ar
    35     7     1    1
    36     6     4    1
    37    13     8   ar
