@<TRIPOS>MOLECULE
*****
 31 35 0 0 0
SMALL
GASTEIGER

@<TRIPOS>ATOM
      1 N          62.2374   88.9148   11.1420 N.pl3   1  UNL1       -0.2892
      2 C          62.5609   87.7110   10.3078 C.3     1  UNL1        0.1095
      3 C          61.7005   87.3616    9.1298 C.3     1  UNL1        0.0939
      4 N          60.5166   88.2161    8.7861 N.3     1  UNL1       -0.2695
      5 C          60.1931   89.4200    9.6203 C.3     1  UNL1        0.0939
      6 C          61.0535   89.7693   10.7982 C.3     1  UNL1        0.1095
      7 C          66.8565   92.5514   15.3452 C.3     1  UNL1        0.0522
      8 C          66.4191   93.0064   13.9844 C.ar    1  UNL1        0.0622
      9 N          66.9468   94.2910   13.4176 N.ar    1  UNL1       -0.2480
     10 C          66.5094   94.7460   12.0569 C.ar    1  UNL1        0.0999
     11 C          65.5444   93.9164   11.2629 C.ar    1  UNL1        0.0379
     12 C          65.0168   92.6318   11.8297 C.ar    1  UNL1        0.0642
     13 C          65.4541   92.1768   13.1904 C.ar    1  UNL1        0.0486
     14 C          64.7696   90.8752   13.4862 C.ar    1  UNL1        0.1040
     15 N          64.8186   89.9631   14.6759 N.ar    1  UNL1       -0.2223
     16 C          64.0072   88.7015   14.6877 C.ar    1  UNL1        0.2001
     17 N          63.1468   88.3521   13.5097 N.ar    1  UNL1       -0.2075
     18 C          63.0978   89.2642   12.3200 C.ar    1  UNL1        0.1509
     19 C          63.9092   90.5258   12.3082 C.ar    1  UNL1        0.1100
     20 N          64.0620   91.6114   11.2844 N.ar    1  UNL1       -0.3217
     21 C          63.3797   91.6670    9.9497 C.3     1  UNL1        0.1306
     22 C          59.6562   87.8667    7.6081 C.3     1  UNL1        0.0769
     23 C          58.5793   88.8098    7.1598 C.3     1  UNL1        0.0437
     24 C          58.8939   89.8909    6.1688 C.ar    1  UNL1       -0.0184
     25 C          57.7981   90.7727    5.6478 C.ar    1  UNL1       -0.0018
     26 C          58.1128   91.8539    4.6567 C.ar    1  UNL1        0.0316
     27 C          59.5233   92.0532    4.1867 C.ar    1  UNL1        0.1674
     28 F          59.8379   93.1343    3.1957 F       1  UNL1       -0.2018
     29 C          60.6191   91.1713    4.7078 C.ar    1  UNL1        0.1671
     30 F          62.0296   91.3705    4.2378 F       1  UNL1       -0.2018
     31 C          60.3044   90.0902    5.6988 C.ar    1  UNL1        0.0277
@<TRIPOS>BOND
     1     7     8    1
     2     8     9   ar
     3     9    10   ar
     4    10    11   ar
     5    11    12   ar
     6    12    13   ar
     7    13    14   ar
     8    14    15   ar
     9    15    16   ar
    10    16    17   ar
    11    17    18   ar
    12    18     1    1
    13     1     2    1
    14     2     3    1
    15     3     4    1
    16     4    22    1
    17    22    23    1
    18    23    24    1
    19    24    25   ar
    20    25    26   ar
    21    26    27   ar
    22    27    28    1
    23    27    29   ar
    24    29    30    1
    25    29    31   ar
    26     4     5    1
    27     5     6    1
    28    18    19   ar
    29    19    20   ar
    30    20    21    1
    31    13     8   ar
    32    19    14   ar
    33    20    12   ar
    34     6     1    1
    35    31    24   ar
@<TRIPOS>MOLECULE
*****
 31 35 0 0 0
SMALL
GASTEIGER

@<TRIPOS>ATOM
      1 N          61.7659   92.7388    2.6242 N.pl3   1  UNL1       -0.2892
      2 C          62.2170   91.5491    3.4184 C.3     1  UNL1        0.1095
      3 C          61.3188   90.9632    4.4673 C.3     1  UNL1        0.0939
      4 N          59.9695   91.5671    4.7218 N.3     1  UNL1       -0.2695
      5 C          59.5185   92.7570    3.9275 C.3     1  UNL1        0.0939
      6 C          60.4166   93.3428    2.8788 C.3     1  UNL1        0.1095
      7 C          64.0281   95.2125   -3.7782 C.3     1  UNL1        0.0522
      8 C          62.6520   94.6733   -3.5223 C.ar    1  UNL1        0.0622
      9 N          61.6469   94.6242   -4.6347 N.ar    1  UNL1       -0.2480
     10 C          60.2707   94.0850   -4.3788 C.ar    1  UNL1        0.0999
     11 C          59.8997   93.5949   -3.0106 C.ar    1  UNL1        0.0379
     12 C          60.9047   93.6440   -1.8983 C.ar    1  UNL1        0.0642
     13 C          62.2809   94.1831   -2.1541 C.ar    1  UNL1        0.0486
     14 C          63.0543   94.1076   -0.8711 C.ar    1  UNL1        0.1040
     15 N          64.4603   94.4965   -0.5223 N.ar    1  UNL1       -0.2223
     16 C          64.9683   94.2996    0.8753 C.ar    1  UNL1        0.2001
     17 N          64.0701   93.7137    1.9241 N.ar    1  UNL1       -0.2075
     18 C          62.6641   93.3247    1.5753 C.ar    1  UNL1        0.1509
     19 C          62.1561   93.5217    0.1777 C.ar    1  UNL1        0.1100
     20 N          60.8277   93.2351   -0.4571 N.ar    1  UNL1       -0.3217
     21 C          59.6320   92.6436    0.2288 C.3     1  UNL1        0.1306
     22 C          59.0714   90.9812    5.7706 C.3     1  UNL1        0.0769
     23 C          58.9882   89.4932    5.9409 C.3     1  UNL1        0.0437
     24 C          59.4094   88.8616    7.2346 C.ar    1  UNL1       -0.0184
     25 C          59.1668   87.4002    7.4695 C.ar    1  UNL1       -0.0018
     26 C          59.5880   86.7686    8.7633 C.ar    1  UNL1        0.0316
     27 C          60.2517   87.5984    9.8220 C.ar    1  UNL1        0.1674
     28 F          60.6728   86.9668   11.1157 F       1  UNL1       -0.2018
     29 C          60.4942   89.0599    9.5870 C.ar    1  UNL1        0.1671
     30 F          61.1578   89.8898   10.6457 F       1  UNL1       -0.2018
     31 C          60.0730   89.6915    8.2933 C.ar    1  UNL1        0.0277
@<TRIPOS>BOND
     1     7     8    1
     2     8     9   ar
     3     9    10   ar
     4    10    11   ar
     5    11    12   ar
     6    12    13   ar
     7    13    14   ar
     8    14    15   ar
     9    15    16   ar
    10    16    17   ar
    11    17    18   ar
    12    18     1    1
    13     1     2    1
    14     2     3    1
    15     3     4    1
    16     4    22    1
    17    22    23    1
    18    23    24    1
    19    24    25   ar
    20    25    26   ar
    21    26    27   ar
    22    27    28    1
    23    27    29   ar
    24    29    30    1
    25    29    31   ar
    26     4     5    1
    27     5     6    1
    28    18    19   ar
    29    19    20   ar
    30    20    21    1
    31    13     8   ar
    32    19    14   ar
    33    20    12   ar
    34     6     1    1
    35    31    24   ar
@<TRIPOS>MOLECULE
*****
 31 35 0 0 0
SMALL
GASTEIGER

@<TRIPOS>ATOM
      1 N          45.1191   75.0863   19.7154 N.pl3   1  UNL1       -0.2892
      2 C          46.3316   74.3422   19.2400 C.3     1  UNL1        0.1095
      3 C          46.1948   72.9447   18.7122 C.3     1  UNL1        0.0939
      4 N          44.8455   72.2915   18.6599 N.3     1  UNL1       -0.2695
      5 C          43.6330   73.0357   19.1353 C.3     1  UNL1        0.0939
      6 C          43.7698   74.4330   19.6630 C.3     1  UNL1        0.1095
      7 C          45.4325   82.3053   19.8395 C.3     1  UNL1        0.0522
      8 C          45.2118   81.4933   18.5977 C.ar    1  UNL1        0.0622
      9 N          45.0399   82.1782   17.2744 N.ar    1  UNL1       -0.2480
     10 C          44.8193   81.3662   16.0326 C.ar    1  UNL1        0.0999
     11 C          44.7705   79.8692   16.1142 C.ar    1  UNL1        0.0379
     12 C          44.9424   79.1843   17.4375 C.ar    1  UNL1        0.0642
     13 C          45.1630   79.9963   18.6793 C.ar    1  UNL1        0.0486
     14 C          45.2988   79.0491   19.8345 C.ar    1  UNL1        0.1040
     15 N          45.5293   79.2785   21.2988 N.ar    1  UNL1       -0.2223
     16 C          45.6231   78.1105   22.2353 C.ar    1  UNL1        0.2001
     17 N          45.4863   76.7131   21.7075 N.ar    1  UNL1       -0.2075
     18 C          45.2558   76.4837   20.2432 C.ar    1  UNL1        0.1509
     19 C          45.1621   77.6517   19.3067 C.ar    1  UNL1        0.1100
     20 N          44.9418   77.7353   17.8253 N.ar    1  UNL1       -0.3217
     21 C          44.7539   76.5737   16.8950 C.3     1  UNL1        0.1306
     22 C          44.7088   70.8941   18.1321 C.3     1  UNL1        0.0769
     23 C          43.8702   70.6301   16.9167 C.3     1  UNL1        0.0437
     24 C          44.5249   70.2483   15.6222 C.ar    1  UNL1       -0.0184
     25 C          45.9480   69.7747   15.6126 C.ar    1  UNL1       -0.0018
     26 C          46.6026   69.3929   14.3180 C.ar    1  UNL1        0.0316
     27 C          45.8341   69.4849   13.0332 C.ar    1  UNL1        0.1674
     28 F          46.4887   69.1032   11.7387 F       1  UNL1       -0.2018
     29 C          44.4108   69.9586   13.0428 C.ar    1  UNL1        0.1671
     30 F          43.6423   70.0506   11.7580 F       1  UNL1       -0.2018
     31 C          43.7563   70.3403   14.3373 C.ar    1  UNL1        0.0277
@<TRIPOS>BOND
     1     7     8    1
     2     8     9   ar
     3     9    10   ar
     4    10    11   ar
     5    11    12   ar
     6    12    13   ar
     7    13    14   ar
     8    14    15   ar
     9    15    16   ar
    10    16    17   ar
    11    17    18   ar
    12    18     1    1
    13     1     2    1
    14     2     3    1
    15     3     4    1
    16     4    22    1
    17    22    23    1
    18    23    24    1
    19    24    25   ar
    20    25    26   ar
    21    26    27   ar
    22    27    28    1
    23    27    29   ar
    24    29    30    1
    25    29    31   ar
    26     4     5    1
    27     5     6    1
    28    18    19   ar
    29    19    20   ar
    30    20    21    1
    31    13     8   ar
    32    19    14   ar
    33    20    12   ar
    34     6     1    1
    35    31    24   ar
@<TRIPOS>MOLECULE
*****
 31 35 0 0 0
SMALL
GASTEIGER

@<TRIPOS>ATOM
      1 N          61.9156   89.4656   11.8624 N.pl3   1  UNL1       -0.2892
      2 C          62.4846   88.8764   10.6058 C.3     1  UNL1        0.1095
      3 C          61.5713   88.2754    9.5788 C.3     1  UNL1        0.0939
      4 N          60.0890   88.2636    9.8083 N.3     1  UNL1       -0.2695
      5 C          59.5200   88.8528   11.0649 C.3     1  UNL1        0.0939
      6 C          60.4332   89.4538   12.0919 C.3     1  UNL1        0.1095
      7 C          66.9512   93.7209   14.8223 C.3     1  UNL1        0.0522
      8 C          66.5349   93.7850   13.3827 C.ar    1  UNL1        0.0622
      9 N          67.1758   94.7790   12.4602 N.ar    1  UNL1       -0.2480
     10 C          66.7595   94.8431   11.0205 C.ar    1  UNL1        0.0999
     11 C          65.7021   93.9133   10.5035 C.ar    1  UNL1        0.0379
     12 C          65.0612   92.9193   11.4260 C.ar    1  UNL1        0.0642
     13 C          65.4775   92.8552   12.8656 C.ar    1  UNL1        0.0486
     14 C          64.6736   91.7790   13.5331 C.ar    1  UNL1        0.1040
     15 N          64.6552   91.2686   14.9435 N.ar    1  UNL1       -0.2223
     16 C          63.7235   90.1572   15.3268 C.ar    1  UNL1        0.2001
     17 N          62.8103   89.5562   14.2998 N.ar    1  UNL1       -0.2075
     18 C          62.8288   90.0666   12.8894 C.ar    1  UNL1        0.1509
     19 C          63.7604   91.1780   12.5061 C.ar    1  UNL1        0.1100
     20 N          63.9999   91.8827   11.2038 N.ar    1  UNL1       -0.3217
     21 C          63.3010   91.6005    9.9070 C.3     1  UNL1        0.1306
     22 C          59.1758   87.6626    8.7813 C.3     1  UNL1        0.0769
     23 C          59.6034   86.4435    8.0191 C.3     1  UNL1        0.0437
     24 C          60.8633   85.7241    8.4003 C.ar    1  UNL1       -0.0184
     25 C          61.8197   85.2718    7.3371 C.ar    1  UNL1       -0.0018
     26 C          63.0796   84.5524    7.7184 C.ar    1  UNL1        0.0316
     27 C          63.3830   84.2855    9.1629 C.ar    1  UNL1        0.1674
     28 F          64.6428   83.5662    9.5442 F       1  UNL1       -0.2018
     29 C          62.4265   84.7380   10.2262 C.ar    1  UNL1        0.1671
     30 F          62.7299   84.4711   11.6708 F       1  UNL1       -0.2018
     31 C          61.1667   85.4572    9.8449 C.ar    1  UNL1        0.0277
@<TRIPOS>BOND
     1     7     8    1
     2     8     9   ar
     3     9    10   ar
     4    10    11   ar
     5    11    12   ar
     6    12    13   ar
     7    13    14   ar
     8    14    15   ar
     9    15    16   ar
    10    16    17   ar
    11    17    18   ar
    12    18     1    1
    13     1     2    1
    14     2     3    1
    15     3     4    1
    16     4    22    1
    17    22    23    1
    18    23    24    1
    19    24    25   ar
    20    25    26   ar
    21    26    27   ar
    22    27    28    1
    23    27    29   ar
    24    29    30    1
    25    29    31   ar
    26     4     5    1
    27     5     6    1
    28    18    19   ar
    29    19    20   ar
    30    20    21    1
    31    13     8   ar
    32    19    14   ar
    33    20    12   ar
    34     6     1    1
    35    31    24   ar
@<TRIPOS>MOLECULE
*****
 31 35 0 0 0
SMALL
GASTEIGER

@<TRIPOS>ATOM
      1 N          63.5342   88.8918   12.8078 N.pl3   1  UNL1       -0.2892
      2 C          63.5450   90.2912   12.2680 C.3     1  UNL1        0.1095
      3 C          64.1912   91.3933   13.0541 C.3     1  UNL1        0.0939
      4 N          64.8265   91.0959   14.3800 N.3     1  UNL1       -0.2695
      5 C          64.8157   89.6965   14.9198 C.3     1  UNL1        0.0939
      6 C          64.1696   88.5945   14.1337 C.3     1  UNL1        0.1095
      7 C          59.5993   85.5580    7.7453 C.3     1  UNL1        0.0522
      8 C          59.7603   87.0462    7.8422 C.ar    1  UNL1        0.0622
      9 N          59.0807   87.9403    6.8479 N.ar    1  UNL1       -0.2480
     10 C          59.2417   89.4285    6.9447 C.ar    1  UNL1        0.0999
     11 C          60.0822   90.0226    8.0358 C.ar    1  UNL1        0.0379
     12 C          60.7618   89.1284    9.0301 C.ar    1  UNL1        0.0642
     13 C          60.6008   87.6402    8.9332 C.ar    1  UNL1        0.0486
     14 C          61.3858   87.0156   10.0484 C.ar    1  UNL1        0.1040
     15 N          61.5957   85.5856   10.4497 N.ar    1  UNL1       -0.2223
     16 C          62.4518   85.2577   11.6370 C.ar    1  UNL1        0.2001
     17 N          63.0980   86.3598   12.4230 N.ar    1  UNL1       -0.2075
     18 C          62.8880   87.7897   12.0217 C.ar    1  UNL1        0.1509
     19 C          62.0320   88.1176   10.8344 C.ar    1  UNL1        0.1100
     20 N          61.6463   89.4234   10.2051 N.ar    1  UNL1       -0.3217
     21 C          62.0706   90.7853   10.6692 C.3     1  UNL1        0.1306
     22 C          65.4727   92.1980   15.1660 C.3     1  UNL1        0.0769
     23 C          66.6822   92.8982   14.6213 C.3     1  UNL1        0.0437
     24 C          66.7865   93.1819   13.1521 C.ar    1  UNL1       -0.0184
     25 C          66.2360   94.4607   12.5942 C.ar    1  UNL1       -0.0018
     26 C          66.3403   94.7443   11.1249 C.ar    1  UNL1        0.0316
     27 C          66.9950   93.7490   10.2135 C.ar    1  UNL1        0.1674
     28 F          67.0993   94.0326    8.7443 F       1  UNL1       -0.2018
     29 C          67.5455   92.4700   10.7714 C.ar    1  UNL1        0.1671
     30 F          68.2003   91.4747    9.8601 F       1  UNL1       -0.2018
     31 C          67.4412   92.1865   12.2406 C.ar    1  UNL1        0.0277
@<TRIPOS>BOND
     1     7     8    1
     2     8     9   ar
     3     9    10   ar
     4    10    11   ar
     5    11    12   ar
     6    12    13   ar
     7    13    14   ar
     8    14    15   ar
     9    15    16   ar
    10    16    17   ar
    11    17    18   ar
    12    18     1    1
    13     1     2    1
    14     2     3    1
    15     3     4    1
    16     4    22    1
    17    22    23    1
    18    23    24    1
    19    24    25   ar
    20    25    26   ar
    21    26    27   ar
    22    27    28    1
    23    27    29   ar
    24    29    30    1
    25    29    31   ar
    26     4     5    1
    27     5     6    1
    28    18    19   ar
    29    19    20   ar
    30    20    21    1
    31    13     8   ar
    32    19    14   ar
    33    20    12   ar
    34     6     1    1
    35    31    24   ar
@<TRIPOS>MOLECULE
*****
 31 35 0 0 0
SMALL
GASTEIGER

@<TRIPOS>ATOM
      1 N          63.4805   88.8819   12.5972 N.pl3   1  UNL1       -0.2892
      2 C          64.1858   88.8574   13.9208 C.3     1  UNL1        0.1095
      3 C          64.7256   90.1284   14.5066 C.3     1  UNL1        0.0939
      4 N          64.5601   91.4239   13.7689 N.3     1  UNL1       -0.2695
      5 C          63.8547   91.4485   12.4453 C.3     1  UNL1        0.0939
      6 C          63.3149   90.1775   11.8595 C.3     1  UNL1        0.1095
      7 C          62.0077   81.8516   11.8023 C.3     1  UNL1        0.0522
      8 C          62.7940   82.4232   12.9446 C.ar    1  UNL1        0.0622
      9 N          63.3293   81.5179   14.0141 N.ar    1  UNL1       -0.2480
     10 C          64.1157   82.0895   15.1564 C.ar    1  UNL1        0.0999
     11 C          64.3668   83.5665   15.2292 C.ar    1  UNL1        0.0379
     12 C          63.8316   84.4718   14.1597 C.ar    1  UNL1        0.0642
     13 C          63.0452   83.9002   13.0174 C.ar    1  UNL1        0.0486
     14 C          62.6462   85.0318   12.1172 C.ar    1  UNL1        0.1040
     15 N          61.8611   85.0690   10.8396 N.ar    1  UNL1       -0.2223
     16 C          61.6158   86.3772   10.1479 C.ar    1  UNL1        0.2001
     17 N          62.1556   87.6482   10.7338 N.ar    1  UNL1       -0.2075
     18 C          62.9407   87.6109   12.0114 C.ar    1  UNL1        0.1509
     19 C          63.1860   86.3027   12.7031 C.ar    1  UNL1        0.1100
     20 N          63.9186   85.9567   13.9654 N.ar    1  UNL1       -0.3217
     21 C          64.6159   86.9254   14.8740 C.3     1  UNL1        0.1306
     22 C          65.0998   92.6949   14.3548 C.3     1  UNL1        0.0769
     23 C          66.4224   93.2313   13.8929 C.3     1  UNL1        0.0437
     24 C          66.6608   93.4845   12.4338 C.ar    1  UNL1       -0.0184
     25 C          66.2930   94.8085   11.8325 C.ar    1  UNL1       -0.0018
     26 C          66.5315   95.0617   10.3733 C.ar    1  UNL1        0.0316
     27 C          67.1378   93.9909    9.5156 C.ar    1  UNL1        0.1674
     28 F          67.3762   94.2441    8.0565 F       1  UNL1       -0.2018
     29 C          67.5056   92.6668   10.1169 C.ar    1  UNL1        0.1671
     30 F          68.1118   91.5960    9.2592 F       1  UNL1       -0.2018
     31 C          67.2671   92.4137   11.5760 C.ar    1  UNL1        0.0277
@<TRIPOS>BOND
     1     7     8    1
     2     8     9   ar
     3     9    10   ar
     4    10    11   ar
     5    11    12   ar
     6    12    13   ar
     7    13    14   ar
     8    14    15   ar
     9    15    16   ar
    10    16    17   ar
    11    17    18   ar
    12    18     1    1
    13     1     2    1
    14     2     3    1
    15     3     4    1
    16     4    22    1
    17    22    23    1
    18    23    24    1
    19    24    25   ar
    20    25    26   ar
    21    26    27   ar
    22    27    28    1
    23    27    29   ar
    24    29    30    1
    25    29    31   ar
    26     4     5    1
    27     5     6    1
    28    18    19   ar
    29    19    20   ar
    30    20    21    1
    31    13     8   ar
    32    19    14   ar
    33    20    12   ar
    34     6     1    1
    35    31    24   ar
@<TRIPOS>MOLECULE
*****
 31 35 0 0 0
SMALL
GASTEIGER

@<TRIPOS>ATOM
      1 N          61.8191   92.8594    2.3590 N.pl3   1  UNL1       -0.2892
      2 C          62.2685   91.7395    3.2498 C.3     1  UNL1        0.1095
      3 C          61.3623   91.2324    4.3323 C.3     1  UNL1        0.0939
      4 N          60.0066   91.8452    4.5238 N.3     1  UNL1       -0.2695
      5 C          59.5571   92.9651    3.6328 C.3     1  UNL1        0.0939
      6 C          60.4633   93.4722    2.5505 C.3     1  UNL1        0.1095
      7 C          64.0654   95.0702   -4.1444 C.3     1  UNL1        0.0522
      8 C          62.6640   94.6284   -3.8429 C.ar    1  UNL1        0.0622
      9 N          61.6279   94.6283   -4.9276 N.ar    1  UNL1       -0.2480
     10 C          60.2265   94.1866   -4.6262 C.ar    1  UNL1        0.0999
     11 C          59.8611   93.7450   -3.2400 C.ar    1  UNL1        0.0379
     12 C          60.8971   93.7452   -2.1553 C.ar    1  UNL1        0.0642
     13 C          62.2986   94.1869   -2.4568 C.ar    1  UNL1        0.0486
     14 C          63.0998   94.0810   -1.1932 C.ar    1  UNL1        0.1040
     15 N          64.5376   94.3809   -0.8883 N.ar    1  UNL1       -0.2223
     16 C          65.0691   94.1736    0.4990 C.ar    1  UNL1        0.2001
     17 N          64.1630   93.6664    1.5814 N.ar    1  UNL1       -0.2075
     18 C          62.7252   93.3666    1.2765 C.ar    1  UNL1        0.1509
     19 C          62.1937   93.5738   -0.1107 C.ar    1  UNL1        0.1100
     20 N          60.8323   93.3663   -0.7054 N.ar    1  UNL1       -0.3217
     21 C          59.6191   92.8675    0.0221 C.3     1  UNL1        0.1306
     22 C          59.1004   91.3380    5.6062 C.3     1  UNL1        0.0769
     23 C          58.8460   89.8661    5.7429 C.3     1  UNL1        0.0437
     24 C          59.4002   89.1150    6.9170 C.ar    1  UNL1       -0.0184
     25 C          59.9040   89.8627    8.1157 C.ar    1  UNL1       -0.0018
     26 C          60.4583   89.1115    9.2898 C.ar    1  UNL1        0.0316
     27 C          60.5087   87.6126    9.2652 C.ar    1  UNL1        0.1674
     28 F          61.0630   86.8614   10.4393 F       1  UNL1       -0.2018
     29 C          60.0049   86.8648    8.0664 C.ar    1  UNL1        0.1671
     30 F          60.0554   85.3659    8.0418 F       1  UNL1       -0.2018
     31 C          59.4507   87.6160    6.8924 C.ar    1  UNL1        0.0277
@<TRIPOS>BOND
     1     7     8    1
     2     8     9   ar
     3     9    10   ar
     4    10    11   ar
     5    11    12   ar
     6    12    13   ar
     7    13    14   ar
     8    14    15   ar
     9    15    16   ar
    10    16    17   ar
    11    17    18   ar
    12    18     1    1
    13     1     2    1
    14     2     3    1
    15     3     4    1
    16     4    22    1
    17    22    23    1
    18    23    24    1
    19    24    25   ar
    20    25    26   ar
    21    26    27   ar
    22    27    28    1
    23    27    29   ar
    24    29    30    1
    25    29    31   ar
    26     4     5    1
    27     5     6    1
    28    18    19   ar
    29    19    20   ar
    30    20    21    1
    31    13     8   ar
    32    19    14   ar
    33    20    12   ar
    34     6     1    1
    35    31    24   ar
@<TRIPOS>MOLECULE
*****
 31 35 0 0 0
SMALL
GASTEIGER

@<TRIPOS>ATOM
      1 N          61.4753   88.5777   10.1125 N.pl3   1  UNL1       -0.2892
      2 C          61.4381   87.5480    9.0226 C.3     1  UNL1        0.1095
      3 C          60.6074   87.7839    7.7959 C.3     1  UNL1        0.0939
      4 N          59.8141   89.0495    7.6593 N.3     1  UNL1       -0.2695
      5 C          59.8513   90.0794    8.7493 C.3     1  UNL1        0.0939
      6 C          60.6819   89.8435    9.9759 C.3     1  UNL1        0.1095
      7 C          64.9548   85.0869   15.3978 C.3     1  UNL1        0.0522
      8 C          64.1807   84.4075   14.3073 C.ar    1  UNL1        0.0622
      9 N          64.0947   82.9105   14.2694 N.ar    1  UNL1       -0.2480
     10 C          63.3207   82.2310   13.1789 C.ar    1  UNL1        0.0999
     11 C          62.6326   83.0486   12.1263 C.ar    1  UNL1        0.0379
     12 C          62.7186   84.5456   12.1642 C.ar    1  UNL1        0.0642
     13 C          63.4927   85.2251   13.2546 C.ar    1  UNL1        0.0486
     14 C          63.4012   86.7060   13.0344 C.ar    1  UNL1        0.1040
     15 N          63.9670   87.8702   13.7923 N.ar    1  UNL1       -0.2223
     16 C          63.7022   89.2703   13.3235 C.ar    1  UNL1        0.2001
     17 N          62.8716   89.5062   12.0970 N.ar    1  UNL1       -0.2075
     18 C          62.3058   88.3419   11.3391 C.ar    1  UNL1        0.1509
     19 C          62.5707   86.9418   11.8078 C.ar    1  UNL1        0.1100
     20 N          62.1488   85.6066   11.2700 N.ar    1  UNL1       -0.3217
     21 C          61.3052   85.3733   10.0518 C.3     1  UNL1        0.1306
     22 C          58.9835   89.2854    6.4327 C.3     1  UNL1        0.0769
     23 C          58.7516   90.6835    5.9414 C.3     1  UNL1        0.0437
     24 C          59.6631   91.2763    4.9081 C.ar    1  UNL1       -0.0184
     25 C          59.1607   92.3549    3.9949 C.ar    1  UNL1       -0.0018
     26 C          60.0723   92.9476    2.9616 C.ar    1  UNL1        0.0316
     27 C          61.4863   92.4617    2.8414 C.ar    1  UNL1        0.1674
     28 F          62.3978   93.0544    1.8081 F       1  UNL1       -0.2018
     29 C          61.9888   91.3829    3.7546 C.ar    1  UNL1        0.1671
     30 F          63.4027   90.8969    3.6345 F       1  UNL1       -0.2018
     31 C          61.0772   90.7903    4.7879 C.ar    1  UNL1        0.0277
@<TRIPOS>BOND
     1     7     8    1
     2     8     9   ar
     3     9    10   ar
     4    10    11   ar
     5    11    12   ar
     6    12    13   ar
     7    13    14   ar
     8    14    15   ar
     9    15    16   ar
    10    16    17   ar
    11    17    18   ar
    12    18     1    1
    13     1     2    1
    14     2     3    1
    15     3     4    1
    16     4    22    1
    17    22    23    1
    18    23    24    1
    19    24    25   ar
    20    25    26   ar
    21    26    27   ar
    22    27    28    1
    23    27    29   ar
    24    29    30    1
    25    29    31   ar
    26     4     5    1
    27     5     6    1
    28    18    19   ar
    29    19    20   ar
    30    20    21    1
    31    13     8   ar
    32    19    14   ar
    33    20    12   ar
    34     6     1    1
    35    31    24   ar
@<TRIPOS>MOLECULE
*****
 31 35 0 0 0
SMALL
GASTEIGER

@<TRIPOS>ATOM
      1 N          63.3797   88.3274   12.7865 N.pl3   1  UNL1       -0.2892
      2 C          64.2837   88.1038   13.9623 C.3     1  UNL1        0.1095
      3 C          64.6370   89.2485   14.8652 C.3     1  UNL1        0.0939
      4 N          64.0863   90.6167   14.5921 N.3     1  UNL1       -0.2695
      5 C          63.1822   90.8403   13.4162 C.3     1  UNL1        0.0939
      6 C          62.8289   89.6958   12.5135 C.3     1  UNL1        0.1095
      7 C          62.3954   81.5552   10.4638 C.3     1  UNL1        0.0522
      8 C          62.9029   81.9116   11.8296 C.ar    1  UNL1        0.0622
      9 N          63.2409   80.8281   12.8103 N.ar    1  UNL1       -0.2480
     10 C          63.7484   81.1844   14.1762 C.ar    1  UNL1        0.0999
     11 C          63.9178   82.6242   14.5613 C.ar    1  UNL1        0.0379
     12 C          63.5798   83.7076   13.5806 C.ar    1  UNL1        0.0642
     13 C          63.0723   83.3513   12.2147 C.ar    1  UNL1        0.0486
     14 C          62.8229   84.6267   11.4656 C.ar    1  UNL1        0.1040
     15 N          62.3197   84.8937   10.0780 N.ar    1  UNL1       -0.2223
     16 C          62.1699   86.3053    9.5933 C.ar    1  UNL1        0.2001
     17 N          62.5232   87.4499   10.4961 N.ar    1  UNL1       -0.2075
     18 C          63.0264   87.1829   11.8837 C.ar    1  UNL1        0.1509
     19 C          63.1762   85.7713   12.3685 C.ar    1  UNL1        0.1100
     20 N          63.6440   85.2032   13.6756 N.ar    1  UNL1       -0.3217
     21 C          64.0966   85.9923   14.8683 C.3     1  UNL1        0.1306
     22 C          64.4396   91.7613   15.4949 C.3     1  UNL1        0.0769
     23 C          65.6998   92.5403   15.2603 C.3     1  UNL1        0.0437
     24 C          66.4235   92.4196   13.9520 C.ar    1  UNL1       -0.0184
     25 C          67.7744   91.7700   13.8993 C.ar    1  UNL1       -0.0018
     26 C          68.4981   91.6493   12.5909 C.ar    1  UNL1        0.0316
     27 C          67.8708   92.1784   11.3353 C.ar    1  UNL1        0.1674
     28 F          68.5945   92.0577   10.0270 F       1  UNL1       -0.2018
     29 C          66.5198   92.8281   11.3879 C.ar    1  UNL1        0.1671
     30 F          65.8926   93.3571   10.1323 F       1  UNL1       -0.2018
     31 C          65.7962   92.9487   12.6962 C.ar    1  UNL1        0.0277
@<TRIPOS>BOND
     1     7     8    1
     2     8     9   ar
     3     9    10   ar
     4    10    11   ar
     5    11    12   ar
     6    12    13   ar
     7    13    14   ar
     8    14    15   ar
     9    15    16   ar
    10    16    17   ar
    11    17    18   ar
    12    18     1    1
    13     1     2    1
    14     2     3    1
    15     3     4    1
    16     4    22    1
    17    22    23    1
    18    23    24    1
    19    24    25   ar
    20    25    26   ar
    21    26    27   ar
    22    27    28    1
    23    27    29   ar
    24    29    30    1
    25    29    31   ar
    26     4     5    1
    27     5     6    1
    28    18    19   ar
    29    19    20   ar
    30    20    21    1
    31    13     8   ar
    32    19    14   ar
    33    20    12   ar
    34     6     1    1
    35    31    24   ar
