@<TRIPOS>MOLECULE
*****
 18 19 0 0 0
SMALL
GASTEIGER

@<TRIPOS>ATOM
      1 C          62.5026   85.3591    9.4527 C.2     1  UNL1        0.0034
      2 C          62.6563   84.8402   10.8516 C.2     1  UNL1        0.0421
      3 C          61.2140   89.1087    9.6269 C.ar    1  UNL1        0.1387
      4 C          60.0522   89.0534    8.6798 C.ar    1  UNL1        0.0369
      5 C          59.7071   87.7668    7.9903 C.ar    1  UNL1        0.0031
      6 C          60.5239   86.5353    8.2479 C.ar    1  UNL1        0.0002
      7 C          61.6857   86.5906    9.1950 C.ar    1  UNL1        0.0031
      8 C          62.0308   87.8773    9.8845 C.ar    1  UNL1        0.0369
      9 C          62.9580   90.9318   10.2470 C.3     1  UNL1        0.2525
     10 O          61.5590   90.3954   10.3164 O.3     1  UNL1       -0.4714
     11 C          63.4732   83.6088   11.1093 C.2     1  UNL1        0.1971
     12 O          64.7331   83.3682   10.3316 O.2     1  UNL1       -0.2865
     13 C          63.0301   82.6179   12.1446 C.ar    1  UNL1        0.0581
     14 C          62.9242   81.1634   11.7938 C.ar    1  UNL1        0.0063
     15 C          62.4811   80.1725   12.8291 C.ar    1  UNL1        0.0208
     16 C          62.1439   80.6362   14.2153 C.ar    1  UNL1        0.0989
     17 N          62.2499   82.0908   14.5660 N.ar    1  UNL1       -0.2422
     18 C          62.6930   83.0816   13.5307 C.ar    1  UNL1        0.1020
@<TRIPOS>BOND
     1     9    10    1
     2    10     3    1
     3     3     4   ar
     4     4     5   ar
     5     5     6   ar
     6     6     7   ar
     7     7     1    1
     8     1     2    2
     9     2    11    1
    10    11    12    2
    11    11    13    1
    12    13    14   ar
    13    14    15   ar
    14    15    16   ar
    15    16    17   ar
    16    17    18   ar
    17     7     8   ar
    18     8     3   ar
    19    18    13   ar
@<TRIPOS>MOLECULE
*****
 18 19 0 0 0
SMALL
GASTEIGER

@<TRIPOS>ATOM
      1 C          62.0173   85.4696   10.7387 C.2     1  UNL1        0.0034
      2 C          63.0069   84.5690   10.0608 C.2     1  UNL1        0.0421
      3 C          60.3342   88.8992    9.6640 C.ar    1  UNL1        0.1387
      4 C          59.7401   88.5206    8.3397 C.ar    1  UNL1        0.0369
      5 C          59.9051   87.1251    7.8151 C.ar    1  UNL1        0.0031
      6 C          60.6642   86.1081    8.6147 C.ar    1  UNL1        0.0002
      7 C          61.2582   86.4866    9.9390 C.ar    1  UNL1        0.0031
      8 C          61.0932   87.8822   10.4636 C.ar    1  UNL1        0.0369
      9 C          59.4368   90.5302   11.4763 C.3     1  UNL1        0.2525
     10 O          60.1692   90.2947   10.1886 O.3     1  UNL1       -0.4714
     11 C          63.7660   83.5520   10.8606 C.2     1  UNL1        0.1971
     12 O          64.7900   82.6839   10.1913 O.2     1  UNL1       -0.2865
     13 C          63.5011   83.4030   12.3294 C.ar    1  UNL1        0.0581
     14 C          62.4728   82.4225   12.8104 C.ar    1  UNL1        0.0063
     15 C          62.2078   82.2736   14.2793 C.ar    1  UNL1        0.0208
     16 C          62.9712   83.1051   15.2672 C.ar    1  UNL1        0.0989
     17 N          63.9994   84.0856   14.7862 N.ar    1  UNL1       -0.2422
     18 C          64.2644   84.2345   13.3173 C.ar    1  UNL1        0.1020
@<TRIPOS>BOND
     1     9    10    1
     2    10     3    1
     3     3     4   ar
     4     4     5   ar
     5     5     6   ar
     6     6     7   ar
     7     7     1    1
     8     1     2    2
     9     2    11    1
    10    11    12    2
    11    11    13    1
    12    13    14   ar
    13    14    15   ar
    14    15    16   ar
    15    16    17   ar
    16    17    18   ar
    17     7     8   ar
    18     8     3   ar
    19    18    13   ar
@<TRIPOS>MOLECULE
*****
 18 19 0 0 0
SMALL
GASTEIGER

@<TRIPOS>ATOM
      1 C          63.1068   91.2393   10.4328 C.2     1  UNL1        0.0034
      2 C          62.1311   90.3031   11.0820 C.2     1  UNL1        0.0421
      3 C          66.6528   92.8433   11.2093 C.ar    1  UNL1        0.1387
      4 C          66.7528   92.6081   12.6874 C.ar    1  UNL1        0.0369
      5 C          65.6374   91.9167   13.4139 C.ar    1  UNL1        0.0031
      6 C          64.4221   91.4604   12.6624 C.ar    1  UNL1        0.0002
      7 C          64.3221   91.6956   11.1844 C.ar    1  UNL1        0.0031
      8 C          65.4375   92.3870   10.4578 C.ar    1  UNL1        0.0369
      9 C          68.5269   92.8109    9.4103 C.3     1  UNL1        0.2525
     10 O          67.7682   93.5348   10.4828 O.3     1  UNL1       -0.4714
     11 C          60.9158   89.8468   10.3305 C.2     1  UNL1        0.1971
     12 O          59.6649   90.6743   10.3540 O.2     1  UNL1       -0.2865
     13 C          60.9513   88.5630    9.5554 C.ar    1  UNL1        0.0581
     14 C          62.0821   87.5978    9.7544 C.ar    1  UNL1        0.0063
     15 C          62.1177   86.3141    8.9794 C.ar    1  UNL1        0.0208
     16 C          61.0224   85.9955    8.0053 C.ar    1  UNL1        0.0989
     17 N          59.8915   86.9607    7.8063 N.ar    1  UNL1       -0.2422
     18 C          59.8560   88.2445    8.5814 C.ar    1  UNL1        0.1020
@<TRIPOS>BOND
     1     9    10    1
     2    10     3    1
     3     3     4   ar
     4     4     5   ar
     5     5     6   ar
     6     6     7   ar
     7     7     1    1
     8     1     2    2
     9     2    11    1
    10    11    12    2
    11    11    13    1
    12    13    14   ar
    13    14    15   ar
    14    15    16   ar
    15    16    17   ar
    16    17    18   ar
    17     7     8   ar
    18     8     3   ar
    19    18    13   ar
@<TRIPOS>MOLECULE
*****
 18 19 0 0 0
SMALL
GASTEIGER

@<TRIPOS>ATOM
      1 C          62.4764   84.9287   12.4035 C.2     1  UNL1        0.0034
      2 C          63.6984   84.3252   13.0300 C.2     1  UNL1        0.0421
      3 C          61.3621   86.2868    8.8448 C.ar    1  UNL1        0.1387
      4 C          62.2961   85.5302    7.9475 C.ar    1  UNL1        0.0369
      5 C          63.2903   84.5732    8.5355 C.ar    1  UNL1        0.0031
      6 C          63.3504   84.3727   10.0208 C.ar    1  UNL1        0.0002
      7 C          62.4163   85.1292   10.9181 C.ar    1  UNL1        0.0031
      8 C          61.4222   86.0862   10.3301 C.ar    1  UNL1        0.0369
      9 C          59.0458   86.7400    7.7589 C.3     1  UNL1        0.2525
     10 O          60.3679   87.2438    8.2568 O.3     1  UNL1       -0.4714
     11 C          63.7584   84.1247   14.5154 C.2     1  UNL1        0.1971
     12 O          64.1655   82.7946   15.0767 O.2     1  UNL1       -0.2865
     13 C          63.4114   85.2542   15.4393 C.ar    1  UNL1        0.0581
     14 C          64.0886   86.5839   15.2857 C.ar    1  UNL1        0.0063
     15 C          63.7415   87.7134   16.2096 C.ar    1  UNL1        0.0208
     16 C          62.7173   87.5134   17.2872 C.ar    1  UNL1        0.0989
     17 N          62.0402   86.1837   17.4408 N.ar    1  UNL1       -0.2422
     18 C          62.3873   85.0542   16.5168 C.ar    1  UNL1        0.1020
@<TRIPOS>BOND
     1     9    10    1
     2    10     3    1
     3     3     4   ar
     4     4     5   ar
     5     5     6   ar
     6     6     7   ar
     7     7     1    1
     8     1     2    2
     9     2    11    1
    10    11    12    2
    11    11    13    1
    12    13    14   ar
    13    14    15   ar
    14    15    16   ar
    15    16    17   ar
    16    17    18   ar
    17     7     8   ar
    18     8     3   ar
    19    18    13   ar
@<TRIPOS>MOLECULE
*****
 18 19 0 0 0
SMALL
GASTEIGER

@<TRIPOS>ATOM
      1 C          62.4930   89.8402   11.8282 C.2     1  UNL1        0.0034
      2 C          62.4087   88.9552   10.6201 C.2     1  UNL1        0.0421
      3 C          65.4502   91.9594   13.4138 C.ar    1  UNL1        0.1387
      4 C          65.8760   92.7799   12.2325 C.ar    1  UNL1        0.0369
      5 C          65.1741   92.6205   10.9165 C.ar    1  UNL1        0.0031
      6 C          64.0465   91.6407   10.7817 C.ar    1  UNL1        0.0002
      7 C          63.6207   90.8202   11.9630 C.ar    1  UNL1        0.0031
      8 C          64.3226   90.9795   13.2790 C.ar    1  UNL1        0.0369
      9 C          67.6257   91.8578   14.8304 C.3     1  UNL1        0.2525
     10 O          66.1521   92.1188   14.7299 O.3     1  UNL1       -0.4714
     11 C          61.2810   87.9753   10.4853 C.2     1  UNL1        0.1971
     12 O          60.1684   87.9693   11.4913 O.2     1  UNL1       -0.2865
     13 C          61.2660   87.0014    9.3446 C.ar    1  UNL1        0.0581
     14 C          62.5028   86.2228    9.0069 C.ar    1  UNL1        0.0063
     15 C          62.4877   85.2489    7.8662 C.ar    1  UNL1        0.0208
     16 C          61.2359   85.0535    7.0632 C.ar    1  UNL1        0.0989
     17 N          59.9991   85.8322    7.4010 N.ar    1  UNL1       -0.2422
     18 C          60.0142   86.8061    8.5417 C.ar    1  UNL1        0.1020
@<TRIPOS>BOND
     1     9    10    1
     2    10     3    1
     3     3     4   ar
     4     4     5   ar
     5     5     6   ar
     6     6     7   ar
     7     7     1    1
     8     1     2    2
     9     2    11    1
    10    11    12    2
    11    11    13    1
    12    13    14   ar
    13    14    15   ar
    14    15    16   ar
    15    16    17   ar
    16    17    18   ar
    17     7     8   ar
    18     8     3   ar
    19    18    13   ar
@<TRIPOS>MOLECULE
*****
 18 19 0 0 0
SMALL
GASTEIGER

@<TRIPOS>ATOM
      1 C          62.6507   85.1076   11.3621 C.2     1  UNL1        0.0034
      2 C          62.3032   86.5651   11.2928 C.2     1  UNL1        0.0421
      3 C          63.1250   82.4355   14.2578 C.ar    1  UNL1        0.1387
      4 C          63.8318   83.2606   15.2919 C.ar    1  UNL1        0.0369
      5 C          64.1449   84.7014   15.0162 C.ar    1  UNL1        0.0031
      6 C          63.7512   85.3171   13.7063 C.ar    1  UNL1        0.0002
      7 C          63.0444   84.4919   12.6721 C.ar    1  UNL1        0.0031
      8 C          62.7313   83.0511   12.9479 C.ar    1  UNL1        0.0369
      9 C          62.2954   80.1155   13.4334 C.3     1  UNL1        0.2525
     10 O          62.8118   80.9946   14.5335 O.3     1  UNL1       -0.4714
     11 C          61.9094   87.1808    9.9828 C.2     1  UNL1        0.1971
     12 O          61.7113   88.6641    9.8807 O.2     1  UNL1       -0.2865
     13 C          61.7139   86.3131    8.7749 C.ar    1  UNL1        0.0581
     14 C          62.8793   85.5764    8.1841 C.ar    1  UNL1        0.0063
     15 C          62.6838   84.7088    6.9763 C.ar    1  UNL1        0.0208
     16 C          61.3228   84.5778    6.3592 C.ar    1  UNL1        0.0989
     17 N          60.1574   85.3145    6.9501 N.ar    1  UNL1       -0.2422
     18 C          60.3530   86.1822    8.1580 C.ar    1  UNL1        0.1020
@<TRIPOS>BOND
     1     9    10    1
     2    10     3    1
     3     3     4   ar
     4     4     5   ar
     5     5     6   ar
     6     6     7   ar
     7     7     1    1
     8     1     2    2
     9     2    11    1
    10    11    12    2
    11    11    13    1
    12    13    14   ar
    13    14    15   ar
    14    15    16   ar
    15    16    17   ar
    16    17    18   ar
    17     7     8   ar
    18     8     3   ar
    19    18    13   ar
@<TRIPOS>MOLECULE
*****
 18 19 0 0 0
SMALL
GASTEIGER

@<TRIPOS>ATOM
      1 C          63.7106   91.2842   10.9417 C.2     1  UNL1        0.0034
      2 C          64.4267   91.4096   12.2537 C.2     1  UNL1        0.0421
      3 C          61.8878   87.7709   11.2314 C.ar    1  UNL1        0.1387
      4 C          60.7160   87.9835   10.3195 C.ar    1  UNL1        0.0369
      5 C          60.5424   89.2963    9.6149 C.ar    1  UNL1        0.0031
      6 C          61.5406   90.3965    9.8223 C.ar    1  UNL1        0.0002
      7 C          62.7124   90.1839   10.7343 C.ar    1  UNL1        0.0031
      8 C          62.8859   88.8711   11.4388 C.ar    1  UNL1        0.0369
      9 C          62.1441   85.1870   11.1439 C.3     1  UNL1        0.2525
     10 O          62.0613   86.4581   11.9359 O.3     1  UNL1       -0.4714
     11 C          65.4250   92.5099   12.4612 C.2     1  UNL1        0.1971
     12 O          65.6829   93.0382   13.8412 O.2     1  UNL1       -0.2865
     13 C          66.1653   93.0818   11.2887 C.ar    1  UNL1        0.0581
     14 C          67.2701   92.2979   10.6444 C.ar    1  UNL1        0.0063
     15 C          68.0103   92.8698    9.4719 C.ar    1  UNL1        0.0208
     16 C          67.6459   94.2256    8.9436 C.ar    1  UNL1        0.0989
     17 N          66.5411   95.0095    9.5878 N.ar    1  UNL1       -0.2422
     18 C          65.8008   94.4375   10.7604 C.ar    1  UNL1        0.1020
@<TRIPOS>BOND
     1     9    10    1
     2    10     3    1
     3     3     4   ar
     4     4     5   ar
     5     5     6   ar
     6     6     7   ar
     7     7     1    1
     8     1     2    2
     9     2    11    1
    10    11    12    2
    11    11    13    1
    12    13    14   ar
    13    14    15   ar
    14    15    16   ar
    15    16    17   ar
    16    17    18   ar
    17     7     8   ar
    18     8     3   ar
    19    18    13   ar
@<TRIPOS>MOLECULE
*****
 18 19 0 0 0
SMALL
GASTEIGER

@<TRIPOS>ATOM
      1 C          63.5253   90.2544   11.7661 C.2     1  UNL1        0.0034
      2 C          64.0731   91.4204   10.9978 C.2     1  UNL1        0.0421
      3 C          60.7492   88.8087    9.3261 C.ar    1  UNL1        0.1387
      4 C          60.6937   87.3788    9.7754 C.ar    1  UNL1        0.0369
      5 C          61.5820   86.9073   10.8884 C.ar    1  UNL1        0.0031
      6 C          62.5259   87.8658   11.5519 C.ar    1  UNL1        0.0002
      7 C          62.5814   89.2958   11.1025 C.ar    1  UNL1        0.0031
      8 C          61.6931   89.7673    9.9896 C.ar    1  UNL1        0.0369
      9 C          59.0978   88.2853    7.3899 C.3     1  UNL1        0.2525
     10 O          59.8609   89.2802    8.2131 O.3     1  UNL1       -0.4714
     11 C          65.0170   92.3790   11.6613 C.2     1  UNL1        0.1971
     12 O          65.0028   92.5339   13.1533 O.2     1  UNL1       -0.2865
     13 C          65.9750   93.1828   10.8330 C.ar    1  UNL1        0.0581
     14 C          67.1423   92.5108   10.1729 C.ar    1  UNL1        0.0063
     15 C          68.1003   93.3145    9.3446 C.ar    1  UNL1        0.0208
     16 C          67.8909   94.7903    9.1762 C.ar    1  UNL1        0.0989
     17 N          66.7236   95.4623    9.8362 N.ar    1  UNL1       -0.2422
     18 C          65.7656   94.6585   10.6646 C.ar    1  UNL1        0.1020
@<TRIPOS>BOND
     1     9    10    1
     2    10     3    1
     3     3     4   ar
     4     4     5   ar
     5     5     6   ar
     6     6     7   ar
     7     7     1    1
     8     1     2    2
     9     2    11    1
    10    11    12    2
    11    11    13    1
    12    13    14   ar
    13    14    15   ar
    14    15    16   ar
    15    16    17   ar
    16    17    18   ar
    17     7     8   ar
    18     8     3   ar
    19    18    13   ar
@<TRIPOS>MOLECULE
*****
 18 19 0 0 0
SMALL
GASTEIGER

@<TRIPOS>ATOM
      1 C          62.6859   85.8788   11.3228 C.2     1  UNL1        0.0034
      2 C          62.9026   84.6794   10.4486 C.2     1  UNL1        0.0421
      3 C          60.2898   88.1486    9.1189 C.ar    1  UNL1        0.1387
      4 C          60.5839   89.5056    9.6862 C.ar    1  UNL1        0.0369
      5 C          61.5787   89.6537   10.7991 C.ar    1  UNL1        0.0031
      6 C          62.2794   88.4448   11.3446 C.ar    1  UNL1        0.0002
      7 C          61.9853   87.0878   10.7773 C.ar    1  UNL1        0.0031
      8 C          60.9905   86.9397    9.6644 C.ar    1  UNL1        0.0369
      9 C          59.2567   89.0077    6.8953 C.3     1  UNL1        0.2525
     10 O          59.2950   88.0004    8.0061 O.3     1  UNL1       -0.4714
     11 C          63.6033   83.4704   10.9941 C.2     1  UNL1        0.1971
     12 O          64.9083   83.0286   10.4010 O.2     1  UNL1       -0.2865
     13 C          62.9989   82.7033   12.1326 C.ar    1  UNL1        0.0581
     14 C          62.7022   81.2411   11.9780 C.ar    1  UNL1        0.0063
     15 C          62.0978   80.4740   13.1165 C.ar    1  UNL1        0.0208
     16 C          61.7902   81.1691   14.4097 C.ar    1  UNL1        0.0989
     17 N          62.0869   82.6313   14.5643 N.ar    1  UNL1       -0.2422
     18 C          62.6913   83.3984   13.4257 C.ar    1  UNL1        0.1020
@<TRIPOS>BOND
     1     9    10    1
     2    10     3    1
     3     3     4   ar
     4     4     5   ar
     5     5     6   ar
     6     6     7   ar
     7     7     1    1
     8     1     2    2
     9     2    11    1
    10    11    12    2
    11    11    13    1
    12    13    14   ar
    13    14    15   ar
    14    15    16   ar
    15    16    17   ar
    16    17    18   ar
    17     7     8   ar
    18     8     3   ar
    19    18    13   ar
