@<TRIPOS>MOLECULE
*****
 47 51 0 0 0
SMALL
GASTEIGER

@<TRIPOS>ATOM
      1 C          64.1062   85.6309   16.4038 C.3     1  UNL1        0.2054
      2 O          64.5598   85.9861   15.0189 O.3     1  UNL1       -0.4755
      3 C          63.8075   85.4706   13.8280 C.ar    1  UNL1        0.1386
      4 C          63.6900   83.9932   13.5971 C.ar    1  UNL1        0.0369
      5 C          62.9377   83.4776   12.4062 C.ar    1  UNL1        0.0031
      6 C          62.3029   84.4395   11.4461 C.ar    1  UNL1        0.0002
      7 C          62.4204   85.9170   11.6770 C.ar    1  UNL1        0.0031
      8 C          63.1727   86.4325   12.8679 C.ar    1  UNL1        0.0369
      9 C          61.7856   86.8790   10.7169 C.ar    1  UNL1        0.0033
     10 C          62.0810   88.3459   10.8196 C.ar    1  UNL1        0.0033
     11 C          61.4462   89.3079    9.8596 C.ar    1  UNL1        0.0402
     12 C          60.5160   88.8028    8.7968 C.ar    1  UNL1        0.1764
     13 C          60.2205   87.3358    8.6941 C.ar    1  UNL1        0.1764
     14 C          60.8553   86.3738    9.6541 C.ar    1  UNL1        0.0402
     15 O          59.2698   87.1333    7.5516 O.3     1  UNL1       -0.4346
     16 C          58.9778   88.4752    6.9483 C.3     1  UNL1        0.4294
     17 O          59.7479   89.5070    7.7178 O.3     1  UNL1       -0.4346
     18 C          62.8201   82.0001   12.1753 C.ar    1  UNL1        0.0023
     19 C          62.4519   81.0907   13.3099 C.ar    1  UNL1        0.0001
     20 C          62.3344   79.6133   13.0790 C.ar    1  UNL1        0.0023
     21 C          62.5850   79.0452   11.7135 C.ar    1  UNL1        0.0296
     22 C          62.9532   79.9547   10.5789 C.ar    1  UNL1        0.1401
     23 F          63.2039   79.3867    9.2135 F       1  UNL1       -0.2042
     24 C          63.0708   81.4321   10.8099 C.ar    1  UNL1        0.0296
     25 C          62.9565   86.3651   17.0278 C.3     1  UNL1        0.0473
     26 C          63.1137   87.8015   17.4302 C.3     1  UNL1        0.0038
     27 C          62.8311   88.8928   16.4406 C.3     1  UNL1        0.0005
     28 C          63.8853   89.3039   15.4560 C.3     1  UNL1        0.0047
     29 C          64.2171   90.7555   15.2747 C.3     1  UNL1        0.0261
     30 C          65.7545   92.9170   12.3228 C.ar    1  UNL1        0.1342
     31 C          64.9768   92.3921   11.1524 C.ar    1  UNL1        0.0365
     32 C          63.9459   91.3217   11.3561 C.ar    1  UNL1        0.0028
     33 C          63.6927   90.7761   12.7302 C.ar    1  UNL1       -0.0044
     34 C          64.4704   91.3010   13.9006 C.ar    1  UNL1       -0.0232
     35 C          65.5012   92.3715   13.6969 C.ar    1  UNL1        0.0082
     36 C          66.2788   92.8963   14.8673 C.3     1  UNL1        0.0350
     37 C          67.5540   92.2243   15.2825 C.3     1  UNL1        0.0465
     38 C          68.8656   92.9308   15.1074 C.2     1  UNL1        0.0507
     39 O          69.1962   94.1205   15.9590 O.co2   1  UNL1       -0.5492
     40 O          69.8465   92.4475   14.0806 O.co2   1  UNL1       -0.5492
     41 O          66.7853   93.9875   12.1190 O.3     1  UNL1       -0.4758
     42 C          66.5757   95.0410   11.0720 C.3     1  UNL1        0.2058
     43 C          67.4409   95.0634    9.8469 C.3     1  UNL1        0.0532
     44 C          67.4455   93.8917    8.9104 C.3     1  UNL1        0.0455
     45 O          68.9972   92.0311    7.9724 O.co2   1  UNL1       -0.5492
     46 C          68.3918   92.7510    9.1408 C.2     1  UNL1        0.0505
     47 O          68.7327   92.3302   10.5397 O.co2   1  UNL1       -0.5492
@<TRIPOS>UNITY_ATOM_ATTR
39 1
charge -1
45 1
charge -1
@<TRIPOS>BOND
     1    45    46   ar
     2    46    47   ar
     3    46    44    1
     4    44    43    1
     5    43    42    1
     6    42    41    1
     7    41    30    1
     8    30    31   ar
     9    31    32   ar
    10    32    33   ar
    11    33    34   ar
    12    34    29    1
    13    29    28    1
    14    28    27    1
    15    27    26    1
    16    26    25    1
    17    25     1    1
    18     1     2    1
    19     2     3    1
    20     3     4   ar
    21     4     5   ar
    22     5    18    1
    23    18    19   ar
    24    19    20   ar
    25    20    21   ar
    26    21    22   ar
    27    22    23    1
    28    22    24   ar
    29     5     6   ar
    30     6     7   ar
    31     7     9    1
    32     9    10   ar
    33    10    11   ar
    34    11    12   ar
    35    12    13   ar
    36    13    14   ar
    37    13    15    1
    38    15    16    1
    39    16    17    1
    40     7     8   ar
    41    34    35   ar
    42    35    36    1
    43    36    37    1
    44    37    38    1
    45    38    39   ar
    46    38    40   ar
    47    35    30   ar
    48     8     3   ar
    49    24    18   ar
    50    14     9   ar
    51    17    12    1
@<TRIPOS>MOLECULE
*****
 47 51 0 0 0
SMALL
GASTEIGER

@<TRIPOS>ATOM
      1 C          59.9762   88.2785    7.9902 C.3     1  UNL1        0.2054
      2 O          59.7873   88.4110    9.4724 O.3     1  UNL1       -0.4755
      3 C          60.9069   88.0572   10.4058 C.ar    1  UNL1        0.1386
      4 C          61.1901   86.6196   10.7266 C.ar    1  UNL1        0.0369
      5 C          62.3098   86.2659   11.6600 C.ar    1  UNL1        0.0031
      6 C          63.1463   87.3498   12.2726 C.ar    1  UNL1        0.0002
      7 C          62.8631   88.7875   11.9518 C.ar    1  UNL1        0.0031
      8 C          61.7434   89.1412   11.0184 C.ar    1  UNL1        0.0369
      9 C          63.6997   89.8715   12.5644 C.ar    1  UNL1        0.0033
     10 C          64.1264   89.7694   13.9987 C.ar    1  UNL1        0.0033
     11 C          64.9629   90.8534   14.6113 C.ar    1  UNL1        0.0402
     12 C          65.3726   92.0394   13.7895 C.ar    1  UNL1        0.1764
     13 C          64.9459   92.1415   12.3551 C.ar    1  UNL1        0.1764
     14 C          64.1094   91.0576   11.7425 C.ar    1  UNL1        0.0402
     15 O          65.4983   93.4195   11.7970 O.3     1  UNL1       -0.4346
     16 C          66.2665   94.1073   12.8864 C.3     1  UNL1        0.4294
     17 O          66.1888   93.2543   14.1179 O.3     1  UNL1       -0.4346
     18 C          62.5930   84.8281   11.9808 C.ar    1  UNL1        0.0023
     19 C          62.5139   84.3466   13.3992 C.ar    1  UNL1        0.0001
     20 C          62.7971   82.9090   13.7201 C.ar    1  UNL1        0.0023
     21 C          63.1595   81.9529   12.6226 C.ar    1  UNL1        0.0296
     22 C          63.2386   82.4344   11.2041 C.ar    1  UNL1        0.1401
     23 F          63.6009   81.4784   10.1066 F       1  UNL1       -0.2042
     24 C          62.9553   83.8721   10.8833 C.ar    1  UNL1        0.0296
     25 C          59.0485   88.9887    7.0495 C.3     1  UNL1        0.0473
     26 C          59.6020   89.9120    6.0049 C.3     1  UNL1        0.0038
     27 C          58.7193   90.9499    5.3775 C.3     1  UNL1        0.0005
     28 C          59.3211   92.1971    4.8011 C.3     1  UNL1        0.0047
     29 C          59.3523   92.3972    3.3148 C.3     1  UNL1        0.0261
     30 C          62.0069   93.5309    0.5913 C.ar    1  UNL1        0.1342
     31 C          63.2794   93.0361    1.2126 C.ar    1  UNL1        0.0365
     32 C          63.2429   92.3284    2.5346 C.ar    1  UNL1        0.0028
     33 C          61.9338   92.1154    3.2354 C.ar    1  UNL1       -0.0044
     34 C          60.6614   92.6101    2.6141 C.ar    1  UNL1       -0.0232
     35 C          60.6979   93.3179    1.2920 C.ar    1  UNL1        0.0082
     36 C          59.4254   93.8126    0.6708 C.3     1  UNL1        0.0350
     37 C          58.7418   92.9989   -0.3878 C.3     1  UNL1        0.0465
     38 C          57.3610   93.3682   -0.8428 C.2     1  UNL1        0.0507
     39 O          56.3719   92.2939   -1.1856 O.co2   1  UNL1       -0.5492
     40 O          56.9693   94.8118   -0.9550 O.co2   1  UNL1       -0.5492
     41 O          62.0435   94.2386   -0.7308 O.3     1  UNL1       -0.4758
     42 C          63.1951   94.0203   -1.6668 C.3     1  UNL1        0.2058
     43 C          62.9975   93.2330   -2.9282 C.3     1  UNL1        0.0532
     44 C          64.1595   92.5265   -3.5611 C.3     1  UNL1        0.0455
     45 O          63.3497   93.2908   -5.9085 O.co2   1  UNL1       -0.5492
     46 C          64.3619   92.5971   -5.0457 C.2     1  UNL1        0.0505
     47 O          65.5765   91.9741   -5.6675 O.co2   1  UNL1       -0.5492
@<TRIPOS>UNITY_ATOM_ATTR
39 1
charge -1
45 1
charge -1
@<TRIPOS>BOND
     1    45    46   ar
     2    46    47   ar
     3    46    44    1
     4    44    43    1
     5    43    42    1
     6    42    41    1
     7    41    30    1
     8    30    31   ar
     9    31    32   ar
    10    32    33   ar
    11    33    34   ar
    12    34    29    1
    13    29    28    1
    14    28    27    1
    15    27    26    1
    16    26    25    1
    17    25     1    1
    18     1     2    1
    19     2     3    1
    20     3     4   ar
    21     4     5   ar
    22     5    18    1
    23    18    19   ar
    24    19    20   ar
    25    20    21   ar
    26    21    22   ar
    27    22    23    1
    28    22    24   ar
    29     5     6   ar
    30     6     7   ar
    31     7     9    1
    32     9    10   ar
    33    10    11   ar
    34    11    12   ar
    35    12    13   ar
    36    13    14   ar
    37    13    15    1
    38    15    16    1
    39    16    17    1
    40     7     8   ar
    41    34    35   ar
    42    35    36    1
    43    36    37    1
    44    37    38    1
    45    38    39   ar
    46    38    40   ar
    47    35    30   ar
    48     8     3   ar
    49    24    18   ar
    50    14     9   ar
    51    17    12    1
@<TRIPOS>MOLECULE
*****
 47 51 0 0 0
SMALL
GASTEIGER

@<TRIPOS>ATOM
      1 C          63.4997   90.7593   16.1714 C.3     1  UNL1        0.2054
      2 O          64.4201   91.5874   15.3245 O.3     1  UNL1       -0.4755
      3 C          64.3390   91.5065   13.8289 C.ar    1  UNL1        0.1386
      4 C          65.2951   92.2933   12.9823 C.ar    1  UNL1        0.0369
      5 C          65.2141   92.2124   11.4867 C.ar    1  UNL1        0.0031
      6 C          64.1769   91.3446   10.8376 C.ar    1  UNL1        0.0002
      7 C          63.2207   90.5579   11.6842 C.ar    1  UNL1        0.0031
      8 C          63.3018   90.6388   13.1799 C.ar    1  UNL1        0.0369
      9 C          62.1835   89.6901   11.0352 C.ar    1  UNL1        0.0033
     10 C          61.6689   88.4752   11.7485 C.ar    1  UNL1        0.0033
     11 C          60.6317   87.6074   11.0996 C.ar    1  UNL1        0.0402
     12 C          60.1091   87.9547    9.7371 C.ar    1  UNL1        0.1764
     13 C          60.6236   89.1697    9.0237 C.ar    1  UNL1        0.1764
     14 C          61.6609   90.0374    9.6727 C.ar    1  UNL1        0.0402
     15 O          59.9262   89.2594    7.6987 O.3     1  UNL1       -0.4346
     16 C          58.9805   88.0998    7.5933 C.3     1  UNL1        0.4294
     17 O          59.0935   87.2935    8.8531 O.3     1  UNL1       -0.4346
     18 C          66.1702   92.9992   10.6400 C.ar    1  UNL1        0.0023
     19 C          65.9516   94.4681   10.4296 C.ar    1  UNL1        0.0001
     20 C          66.9077   95.2550    9.5829 C.ar    1  UNL1        0.0023
     21 C          68.0824   94.5728    8.9467 C.ar    1  UNL1        0.0296
     22 C          68.3010   93.1037    9.1571 C.ar    1  UNL1        0.1401
     23 F          69.4756   92.4216    8.5209 F       1  UNL1       -0.2042
     24 C          67.3448   92.3170   10.0038 C.ar    1  UNL1        0.0296
     25 C          63.5370   89.2627   16.0769 C.3     1  UNL1        0.0473
     26 C          62.4737   88.4424   16.7449 C.3     1  UNL1        0.0038
     27 C          62.8209   87.5788   17.9212 C.3     1  UNL1        0.0005
     28 C          62.6111   86.0953   17.8505 C.3     1  UNL1        0.0047
     29 C          62.2873   85.4454   16.5379 C.3     1  UNL1        0.0261
     30 C          64.3831   83.2607   13.9718 C.ar    1  UNL1        0.1342
     31 C          65.6069   84.1125   13.8077 C.ar    1  UNL1        0.0365
     32 C          65.7241   85.4086   14.5538 C.ar    1  UNL1        0.0028
     33 C          64.6176   85.8528   15.4638 C.ar    1  UNL1       -0.0044
     34 C          63.3939   85.0011   15.6278 C.ar    1  UNL1       -0.0232
     35 C          63.2766   83.7050   14.8818 C.ar    1  UNL1        0.0082
     36 C          62.0528   82.8533   15.0459 C.3     1  UNL1        0.0350
     37 C          61.4589   82.1569   13.8574 C.3     1  UNL1        0.0465
     38 C          61.0491   80.7176   13.9590 C.2     1  UNL1        0.0507
     39 O          59.6927   80.3598   14.4902 O.co2   1  UNL1       -0.5492
     40 O          61.9956   79.6361   13.5295 O.co2   1  UNL1       -0.5492
     41 O          64.2659   81.9647   13.2257 O.3     1  UNL1       -0.4758
     42 C          64.6708   81.8903   11.7833 C.3     1  UNL1        0.2058
     43 C          63.6844   82.2390   10.7084 C.3     1  UNL1        0.0532
     44 C          63.8682   83.4879    9.8983 C.3     1  UNL1        0.0455
     45 O          62.5475   85.5671    9.0719 O.co2   1  UNL1       -0.5492
     46 C          63.0399   84.7029   10.1948 C.2     1  UNL1        0.0505
     47 O          62.7043   85.0537   11.6140 O.co2   1  UNL1       -0.5492
@<TRIPOS>UNITY_ATOM_ATTR
39 1
charge -1
45 1
charge -1
@<TRIPOS>BOND
     1    45    46   ar
     2    46    47   ar
     3    46    44    1
     4    44    43    1
     5    43    42    1
     6    42    41    1
     7    41    30    1
     8    30    31   ar
     9    31    32   ar
    10    32    33   ar
    11    33    34   ar
    12    34    29    1
    13    29    28    1
    14    28    27    1
    15    27    26    1
    16    26    25    1
    17    25     1    1
    18     1     2    1
    19     2     3    1
    20     3     4   ar
    21     4     5   ar
    22     5    18    1
    23    18    19   ar
    24    19    20   ar
    25    20    21   ar
    26    21    22   ar
    27    22    23    1
    28    22    24   ar
    29     5     6   ar
    30     6     7   ar
    31     7     9    1
    32     9    10   ar
    33    10    11   ar
    34    11    12   ar
    35    12    13   ar
    36    13    14   ar
    37    13    15    1
    38    15    16    1
    39    16    17    1
    40     7     8   ar
    41    34    35   ar
    42    35    36    1
    43    36    37    1
    44    37    38    1
    45    38    39   ar
    46    38    40   ar
    47    35    30   ar
    48     8     3   ar
    49    24    18   ar
    50    14     9   ar
    51    17    12    1
@<TRIPOS>MOLECULE
*****
 47 51 0 0 0
SMALL
GASTEIGER

@<TRIPOS>ATOM
      1 C          59.8474   88.1270    7.6475 C.3     1  UNL1        0.2054
      2 O          59.6005   87.5562    9.0125 O.3     1  UNL1       -0.4755
      3 C          60.7429   87.3753    9.9677 C.ar    1  UNL1        0.1386
      4 C          61.1426   85.9977   10.4065 C.ar    1  UNL1        0.0369
      5 C          62.2849   85.8168   11.3616 C.ar    1  UNL1        0.0031
      6 C          63.0276   87.0133   11.8780 C.ar    1  UNL1        0.0002
      7 C          62.6278   88.3909   11.4392 C.ar    1  UNL1        0.0031
      8 C          61.4855   88.5719   10.4840 C.ar    1  UNL1        0.0369
      9 C          63.3705   89.5876   11.9556 C.ar    1  UNL1        0.0033
     10 C          63.5810   90.7794   11.0695 C.ar    1  UNL1        0.0033
     11 C          64.3236   91.9760   11.5859 C.ar    1  UNL1        0.0402
     12 C          64.8557   91.9807   12.9883 C.ar    1  UNL1        0.1764
     13 C          64.6452   90.7889   13.8744 C.ar    1  UNL1        0.1764
     14 C          63.9026   89.5923   13.3581 C.ar    1  UNL1        0.0402
     15 O          65.2801   91.0802   15.2018 O.3     1  UNL1       -0.4346
     16 C          65.8830   92.4521   15.1361 C.3     1  UNL1        0.4294
     17 O          65.6207   93.0087   13.7681 O.3     1  UNL1       -0.4346
     18 C          62.6847   84.4392   11.8005 C.ar    1  UNL1        0.0023
     19 C          63.4338   83.5408   10.8614 C.ar    1  UNL1        0.0001
     20 C          63.8336   82.1633   11.3002 C.ar    1  UNL1        0.0023
     21 C          63.4843   81.6841   12.6780 C.ar    1  UNL1        0.0296
     22 C          62.7352   82.5825   13.6171 C.ar    1  UNL1        0.1401
     23 F          62.3860   82.1034   14.9949 F       1  UNL1       -0.2042
     24 C          62.3355   83.9600   13.1782 C.ar    1  UNL1        0.0296
     25 C          59.3041   89.4788    7.2904 C.3     1  UNL1        0.0473
     26 C          59.4183   89.9851    5.8831 C.3     1  UNL1        0.0038
     27 C          58.5214   91.0897    5.4082 C.3     1  UNL1        0.0005
     28 C          59.1101   92.3072    4.7593 C.3     1  UNL1        0.0047
     29 C          59.3440   92.3285    3.2778 C.3     1  UNL1        0.0261
     30 C          62.3760   93.3878    0.9467 C.ar    1  UNL1        0.1342
     31 C          63.5247   92.7445    1.6658 C.ar    1  UNL1        0.0365
     32 C          63.2796   91.9626    2.9222 C.ar    1  UNL1        0.0028
     33 C          61.8861   91.8239    3.4596 C.ar    1  UNL1       -0.0044
     34 C          60.7375   92.4672    2.7405 C.ar    1  UNL1       -0.0232
     35 C          60.9825   93.2491    1.4840 C.ar    1  UNL1        0.0082
     36 C          59.8339   93.8924    0.7651 C.3     1  UNL1        0.0350
     37 C          59.0791   93.1253   -0.2798 C.3     1  UNL1        0.0465
     38 C          57.7106   93.5750   -0.6981 C.2     1  UNL1        0.0507
     39 O          57.4361   95.0325   -0.9225 O.co2   1  UNL1       -0.5492
     40 O          56.6165   92.5673   -0.8919 O.co2   1  UNL1       -0.5492
     41 O          62.6211   94.1697   -0.3097 O.3     1  UNL1       -0.4758
     42 C          63.8473   93.9036   -1.1316 C.3     1  UNL1        0.2058
     43 C          63.8464   94.2083   -2.6004 C.3     1  UNL1        0.0532
     44 C          62.8630   93.5290   -3.5067 C.3     1  UNL1        0.0455
     45 O          61.6475   95.4672   -4.7380 O.co2   1  UNL1       -0.5492
     46 C          61.5937   94.2279   -3.8945 C.2     1  UNL1        0.0505
     47 O          60.2706   93.6875   -3.4390 O.co2   1  UNL1       -0.5492
@<TRIPOS>UNITY_ATOM_ATTR
39 1
charge -1
45 1
charge -1
@<TRIPOS>BOND
     1    45    46   ar
     2    46    47   ar
     3    46    44    1
     4    44    43    1
     5    43    42    1
     6    42    41    1
     7    41    30    1
     8    30    31   ar
     9    31    32   ar
    10    32    33   ar
    11    33    34   ar
    12    34    29    1
    13    29    28    1
    14    28    27    1
    15    27    26    1
    16    26    25    1
    17    25     1    1
    18     1     2    1
    19     2     3    1
    20     3     4   ar
    21     4     5   ar
    22     5    18    1
    23    18    19   ar
    24    19    20   ar
    25    20    21   ar
    26    21    22   ar
    27    22    23    1
    28    22    24   ar
    29     5     6   ar
    30     6     7   ar
    31     7     9    1
    32     9    10   ar
    33    10    11   ar
    34    11    12   ar
    35    12    13   ar
    36    13    14   ar
    37    13    15    1
    38    15    16    1
    39    16    17    1
    40     7     8   ar
    41    34    35   ar
    42    35    36    1
    43    36    37    1
    44    37    38    1
    45    38    39   ar
    46    38    40   ar
    47    35    30   ar
    48     8     3   ar
    49    24    18   ar
    50    14     9   ar
    51    17    12    1
@<TRIPOS>MOLECULE
*****
 47 51 0 0 0
SMALL
GASTEIGER

@<TRIPOS>ATOM
      1 C          59.7206   88.3816    7.9780 C.3     1  UNL1        0.2054
      2 O          59.5981   88.3773    9.4730 O.3     1  UNL1       -0.4755
      3 C          60.7810   88.0152   10.3214 C.ar    1  UNL1        0.1386
      4 C          61.1387   86.5741   10.5337 C.ar    1  UNL1        0.0369
      5 C          62.3215   86.2120   11.3821 C.ar    1  UNL1        0.0031
      6 C          63.1467   87.2911   12.0182 C.ar    1  UNL1        0.0002
      7 C          62.7890   88.7323   11.8059 C.ar    1  UNL1        0.0031
      8 C          61.6062   89.0943   10.9575 C.ar    1  UNL1        0.0369
      9 C          63.6142   89.8114   12.4420 C.ar    1  UNL1        0.0033
     10 C          63.9728   89.7229   13.8957 C.ar    1  UNL1        0.0033
     11 C          64.7979   90.8020   14.5318 C.ar    1  UNL1        0.0402
     12 C          65.2646   91.9697   13.7141 C.ar    1  UNL1        0.1764
     13 C          64.9060   92.0583   12.2602 C.ar    1  UNL1        0.1764
     14 C          64.0808   90.9792   11.6242 C.ar    1  UNL1        0.0402
     15 O          65.5045   93.3194   11.7112 O.3     1  UNL1       -0.4346
     16 C          66.2329   94.0101   12.8257 C.3     1  UNL1        0.4294
     17 O          66.0847   93.1760   14.0635 O.3     1  UNL1       -0.4346
     18 C          62.6793   84.7708   11.5945 C.ar    1  UNL1        0.0023
     19 C          63.2886   83.9769   10.4772 C.ar    1  UNL1        0.0001
     20 C          63.6464   82.5357   10.6895 C.ar    1  UNL1        0.0023
     21 C          63.3948   81.8885   12.0191 C.ar    1  UNL1        0.0296
     22 C          62.7853   82.6825   13.1365 C.ar    1  UNL1        0.1401
     23 F          62.5337   82.0353   14.4660 F       1  UNL1       -0.2042
     24 C          62.4276   84.1236   12.9240 C.ar    1  UNL1        0.0296
     25 C          59.7633   89.6827    7.2328 C.3     1  UNL1        0.0473
     26 C          59.1715   89.7792    5.8579 C.3     1  UNL1        0.0038
     27 C          58.4708   91.0344    5.4294 C.3     1  UNL1        0.0005
     28 C          59.2670   92.2100    4.9457 C.3     1  UNL1        0.0047
     29 C          59.5434   92.3771    3.4809 C.3     1  UNL1        0.0261
     30 C          62.7598   93.6623    1.5437 C.ar    1  UNL1        0.1342
     31 C          63.7864   92.6735    2.0114 C.ar    1  UNL1        0.0365
     32 C          63.3985   91.5859    2.9688 C.ar    1  UNL1        0.0028
     33 C          61.9842   91.4871    3.4587 C.ar    1  UNL1       -0.0044
     34 C          60.9577   92.4759    2.9910 C.ar    1  UNL1       -0.0232
     35 C          61.3455   93.5635    2.0335 C.ar    1  UNL1        0.0082
     36 C          60.3190   94.5522    1.5659 C.3     1  UNL1        0.0350
     37 C          59.7288   94.4276    0.1925 C.3     1  UNL1        0.0465
     38 C          60.1073   93.2711   -0.6844 C.2     1  UNL1        0.0507
     39 O          59.5182   91.9148   -0.4327 O.co2   1  UNL1       -0.5492
     40 O          61.0750   93.4708   -1.8130 O.co2   1  UNL1       -0.5492
     41 O          63.1477   94.7499    0.5862 O.3     1  UNL1       -0.4758
     42 C          64.5938   94.9866    0.2659 C.3     1  UNL1        0.2058
     43 C          65.0241   96.2890   -0.3413 C.3     1  UNL1        0.0532
     44 C          65.4746   96.3373   -1.7712 C.3     1  UNL1        0.0455
     45 O          65.0725   95.4098   -4.1645 O.co2   1  UNL1       -0.5492
     46 C          64.5329   95.9375   -2.8682 C.2     1  UNL1        0.0505
     47 O          63.0517   96.0655   -2.6688 O.co2   1  UNL1       -0.5492
@<TRIPOS>UNITY_ATOM_ATTR
39 1
charge -1
45 1
charge -1
@<TRIPOS>BOND
     1    45    46   ar
     2    46    47   ar
     3    46    44    1
     4    44    43    1
     5    43    42    1
     6    42    41    1
     7    41    30    1
     8    30    31   ar
     9    31    32   ar
    10    32    33   ar
    11    33    34   ar
    12    34    29    1
    13    29    28    1
    14    28    27    1
    15    27    26    1
    16    26    25    1
    17    25     1    1
    18     1     2    1
    19     2     3    1
    20     3     4   ar
    21     4     5   ar
    22     5    18    1
    23    18    19   ar
    24    19    20   ar
    25    20    21   ar
    26    21    22   ar
    27    22    23    1
    28    22    24   ar
    29     5     6   ar
    30     6     7   ar
    31     7     9    1
    32     9    10   ar
    33    10    11   ar
    34    11    12   ar
    35    12    13   ar
    36    13    14   ar
    37    13    15    1
    38    15    16    1
    39    16    17    1
    40     7     8   ar
    41    34    35   ar
    42    35    36    1
    43    36    37    1
    44    37    38    1
    45    38    39   ar
    46    38    40   ar
    47    35    30   ar
    48     8     3   ar
    49    24    18   ar
    50    14     9   ar
    51    17    12    1
@<TRIPOS>MOLECULE
*****
 47 51 0 0 0
SMALL
GASTEIGER

@<TRIPOS>ATOM
      1 C          62.4035   90.7123   10.4802 C.3     1  UNL1        0.2054
      2 O          63.5191   91.5336   11.0556 O.3     1  UNL1       -0.4755
      3 C          64.1698   91.1185   12.3417 C.ar    1  UNL1        0.1386
      4 C          65.2539   91.9644   12.9409 C.ar    1  UNL1        0.0369
      5 C          65.9046   91.5494   14.2271 C.ar    1  UNL1        0.0031
      6 C          65.4713   90.2883   14.9141 C.ar    1  UNL1        0.0002
      7 C          64.3872   89.4424   14.3149 C.ar    1  UNL1        0.0031
      8 C          63.7364   89.8575   13.0287 C.ar    1  UNL1        0.0369
      9 C          63.9537   88.1813   15.0019 C.ar    1  UNL1        0.0033
     10 C          63.2322   88.2524   16.3149 C.ar    1  UNL1        0.0033
     11 C          62.7988   86.9914   17.0019 C.ar    1  UNL1        0.0402
     12 C          63.0870   85.6592   16.3758 C.ar    1  UNL1        0.1764
     13 C          63.8086   85.5879   15.0627 C.ar    1  UNL1        0.1764
     14 C          64.2420   86.8490   14.3757 C.ar    1  UNL1        0.0402
     15 O          63.9519   84.1420   14.6903 O.3     1  UNL1       -0.4346
     16 C          63.3189   83.3196   15.7733 C.3     1  UNL1        0.4294
     17 O          62.7843   84.2572   16.8150 O.3     1  UNL1       -0.4346
     18 C          66.9888   92.3953   14.8264 C.ar    1  UNL1        0.0023
     19 C          67.0176   93.8723   14.5665 C.ar    1  UNL1        0.0001
     20 C          68.1017   94.7183   15.1657 C.ar    1  UNL1        0.0023
     21 C          69.1570   94.0872   16.0249 C.ar    1  UNL1        0.0296
     22 C          69.1282   92.6101   16.2848 C.ar    1  UNL1        0.1401
     23 F          70.1834   91.9791   17.1439 F       1  UNL1       -0.2042
     24 C          68.0440   91.7643   15.6855 C.ar    1  UNL1        0.0296
     25 C          61.1669   90.4553   11.2894 C.3     1  UNL1        0.0473
     26 C          59.8698   90.1506   10.6005 C.3     1  UNL1        0.0038
     27 C          59.8646   89.7455    9.1563 C.3     1  UNL1        0.0005
     28 C          59.8564   88.2922    8.7850 C.3     1  UNL1        0.0047
     29 C          61.1511   87.5648    8.5736 C.3     1  UNL1        0.0261
     30 C          63.1680   84.6182   10.3055 C.ar    1  UNL1        0.1342
     31 C          62.6816   84.7347   11.7197 C.ar    1  UNL1        0.0365
     32 C          61.6851   85.7946   12.0851 C.ar    1  UNL1        0.0028
     33 C          61.1749   86.7380   11.0364 C.ar    1  UNL1       -0.0044
     34 C          61.6613   86.6214    9.6223 C.ar    1  UNL1       -0.0232
     35 C          62.6578   85.5615    9.2568 C.ar    1  UNL1        0.0082
     36 C          63.1441   85.4451    7.8426 C.3     1  UNL1        0.0350
     37 C          62.6669   84.3176    6.9759 C.3     1  UNL1        0.0465
     38 C          61.4031   84.4653    6.1817 C.2     1  UNL1        0.0507
     39 O          61.3801   84.0843    4.7310 O.co2   1  UNL1       -0.5492
     40 O          60.1622   84.9939    6.8380 O.co2   1  UNL1       -0.5492
     41 O          64.1646   83.5583    9.9400 O.3     1  UNL1       -0.4758
     42 C          63.8840   82.1211   10.2650 C.3     1  UNL1        0.2058
     43 C          63.7272   81.6920   11.6937 C.3     1  UNL1        0.0532
     44 C          62.5395   80.8732   12.1048 C.3     1  UNL1        0.0455
     45 O          63.3857   80.1328   14.4470 O.co2   1  UNL1       -0.5492
     46 C          62.2760   80.6110   13.5580 C.2     1  UNL1        0.0505
     47 O          60.9031   80.8269   14.1222 O.co2   1  UNL1       -0.5492
@<TRIPOS>UNITY_ATOM_ATTR
39 1
charge -1
45 1
charge -1
@<TRIPOS>BOND
     1    45    46   ar
     2    46    47   ar
     3    46    44    1
     4    44    43    1
     5    43    42    1
     6    42    41    1
     7    41    30    1
     8    30    31   ar
     9    31    32   ar
    10    32    33   ar
    11    33    34   ar
    12    34    29    1
    13    29    28    1
    14    28    27    1
    15    27    26    1
    16    26    25    1
    17    25     1    1
    18     1     2    1
    19     2     3    1
    20     3     4   ar
    21     4     5   ar
    22     5    18    1
    23    18    19   ar
    24    19    20   ar
    25    20    21   ar
    26    21    22   ar
    27    22    23    1
    28    22    24   ar
    29     5     6   ar
    30     6     7   ar
    31     7     9    1
    32     9    10   ar
    33    10    11   ar
    34    11    12   ar
    35    12    13   ar
    36    13    14   ar
    37    13    15    1
    38    15    16    1
    39    16    17    1
    40     7     8   ar
    41    34    35   ar
    42    35    36    1
    43    36    37    1
    44    37    38    1
    45    38    39   ar
    46    38    40   ar
    47    35    30   ar
    48     8     3   ar
    49    24    18   ar
    50    14     9   ar
    51    17    12    1
@<TRIPOS>MOLECULE
*****
 47 51 0 0 0
SMALL
GASTEIGER

@<TRIPOS>ATOM
      1 C          59.7565   92.0507    4.1399 C.3     1  UNL1        0.2054
      2 O          59.7895   93.4358    3.5651 O.3     1  UNL1       -0.4755
      3 C          60.1237   93.6391    2.1169 C.ar    1  UNL1        0.1386
      4 C          61.4303   94.2658    1.7296 C.ar    1  UNL1        0.0369
      5 C          61.7645   94.4691    0.2814 C.ar    1  UNL1        0.0031
      6 C          60.7920   94.0457   -0.7793 C.ar    1  UNL1        0.0002
      7 C          59.4855   93.4190   -0.3919 C.ar    1  UNL1        0.0031
      8 C          59.1513   93.2157    1.0562 C.ar    1  UNL1        0.0369
      9 C          58.5130   92.9955   -1.4526 C.ar    1  UNL1        0.0033
     10 C          57.1845   92.4174   -1.0645 C.ar    1  UNL1        0.0033
     11 C          56.2121   91.9940   -2.1252 C.ar    1  UNL1        0.0402
     12 C          56.5682   92.1488   -3.5741 C.ar    1  UNL1        0.1764
     13 C          57.8967   92.7270   -3.9622 C.ar    1  UNL1        0.1764
     14 C          58.8691   93.1504   -2.9016 C.ar    1  UNL1        0.0402
     15 O          57.9689   92.7582   -5.4602 O.3     1  UNL1       -0.4346
     16 C          56.6849   92.1993   -5.9978 C.3     1  UNL1        0.4294
     17 O          55.8192   91.8226   -4.8321 O.3     1  UNL1       -0.4346
     18 C          63.0711   95.0958   -0.1060 C.ar    1  UNL1        0.0023
     19 C          63.9241   95.7564    0.9360 C.ar    1  UNL1        0.0001
     20 C          65.2307   96.3831    0.5486 C.ar    1  UNL1        0.0023
     21 C          65.6842   96.3492   -0.8808 C.ar    1  UNL1        0.0296
     22 C          64.8311   95.6884   -1.9229 C.ar    1  UNL1        0.1401
     23 F          65.2846   95.6545   -3.3522 F       1  UNL1       -0.2042
     24 C          63.5246   95.0618   -1.5354 C.ar    1  UNL1        0.0296
     25 C          58.4712   91.4905    4.6730 C.3     1  UNL1        0.0473
     26 C          58.4575   90.7618    5.9841 C.3     1  UNL1        0.0038
     27 C          59.3356   89.5624    6.1848 C.3     1  UNL1        0.0005
     28 C          59.7660   89.1709    7.5674 C.3     1  UNL1        0.0047
     29 C          59.4688   87.7943    8.0838 C.3     1  UNL1        0.0261
     30 C          62.0296   86.1359   10.6218 C.ar    1  UNL1        0.1342
     31 C          62.7949   85.2314    9.7018 C.ar    1  UNL1        0.0365
     32 C          62.4515   85.1813    8.2425 C.ar    1  UNL1        0.0028
     33 C          61.3428   86.0356    7.7032 C.ar    1  UNL1       -0.0044
     34 C          60.5775   86.9400    8.6232 C.ar    1  UNL1       -0.0232
     35 C          60.9209   86.9902   10.0825 C.ar    1  UNL1        0.0082
     36 C          60.1555   87.8946   11.0024 C.3     1  UNL1        0.0350
     37 C          60.5905   89.3182   11.1874 C.3     1  UNL1        0.0465
     38 C          62.0326   89.6909   11.0103 C.2     1  UNL1        0.0507
     39 O          62.4527   90.5268    9.8378 O.co2   1  UNL1       -0.5492
     40 O          63.0546   89.2277   12.0057 O.co2   1  UNL1       -0.5492
     41 O          62.3730   86.1860   12.0811 O.3     1  UNL1       -0.4758
     42 C          63.1508   85.0667   12.7075 C.3     1  UNL1        0.2058
     43 C          62.4360   83.8514   13.2195 C.3     1  UNL1        0.0532
     44 C          63.0385   82.4910   13.0288 C.3     1  UNL1        0.0455
     45 O          61.1574   81.2281   14.3002 O.co2   1  UNL1       -0.5492
     46 C          62.5960   81.3470   13.8922 C.2     1  UNL1        0.0505
     47 O          63.5921   80.3221   14.3476 O.co2   1  UNL1       -0.5492
@<TRIPOS>UNITY_ATOM_ATTR
39 1
charge -1
45 1
charge -1
@<TRIPOS>BOND
     1    45    46   ar
     2    46    47   ar
     3    46    44    1
     4    44    43    1
     5    43    42    1
     6    42    41    1
     7    41    30    1
     8    30    31   ar
     9    31    32   ar
    10    32    33   ar
    11    33    34   ar
    12    34    29    1
    13    29    28    1
    14    28    27    1
    15    27    26    1
    16    26    25    1
    17    25     1    1
    18     1     2    1
    19     2     3    1
    20     3     4   ar
    21     4     5   ar
    22     5    18    1
    23    18    19   ar
    24    19    20   ar
    25    20    21   ar
    26    21    22   ar
    27    22    23    1
    28    22    24   ar
    29     5     6   ar
    30     6     7   ar
    31     7     9    1
    32     9    10   ar
    33    10    11   ar
    34    11    12   ar
    35    12    13   ar
    36    13    14   ar
    37    13    15    1
    38    15    16    1
    39    16    17    1
    40     7     8   ar
    41    34    35   ar
    42    35    36    1
    43    36    37    1
    44    37    38    1
    45    38    39   ar
    46    38    40   ar
    47    35    30   ar
    48     8     3   ar
    49    24    18   ar
    50    14     9   ar
    51    17    12    1
@<TRIPOS>MOLECULE
*****
 47 51 0 0 0
SMALL
GASTEIGER

@<TRIPOS>ATOM
      1 C          65.1159   86.5056   15.2637 C.3     1  UNL1        0.2054
      2 O          64.9901   85.0595   14.8857 O.3     1  UNL1       -0.4755
      3 C          64.1456   84.6619   13.7115 C.ar    1  UNL1        0.1386
      4 C          63.9613   83.2113   13.3771 C.ar    1  UNL1        0.0369
      5 C          63.1167   82.8138   12.2029 C.ar    1  UNL1        0.0031
      6 C          62.4565   83.8668   11.3632 C.ar    1  UNL1        0.0002
      7 C          62.6408   85.3174   11.6976 C.ar    1  UNL1        0.0031
      8 C          63.4853   85.7149   12.8718 C.ar    1  UNL1        0.0369
      9 C          61.9805   86.3705   10.8578 C.ar    1  UNL1        0.0033
     10 C          62.2369   87.8218   11.1365 C.ar    1  UNL1        0.0033
     11 C          61.5767   88.8748   10.2968 C.ar    1  UNL1        0.0402
     12 C          60.6599   88.4765    9.1783 C.ar    1  UNL1        0.1764
     13 C          60.4035   87.0251    8.8996 C.ar    1  UNL1        0.1764
     14 C          61.0637   85.9720    9.7393 C.ar    1  UNL1        0.0402
     15 O          59.4583   86.9360    7.7382 O.3     1  UNL1       -0.4346
     16 C          59.1307   88.3324    7.2992 C.3     1  UNL1        0.4294
     17 O          59.8733   89.2845    8.1892 O.3     1  UNL1       -0.4346
     18 C          62.9324   81.3632   11.8684 C.ar    1  UNL1        0.0023
     19 C          62.5214   80.3936   12.9366 C.ar    1  UNL1        0.0001
     20 C          62.3370   78.9430   12.6022 C.ar    1  UNL1        0.0023
     21 C          62.5636   78.4620   11.1996 C.ar    1  UNL1        0.0296
     22 C          62.9747   79.4316   10.1313 C.ar    1  UNL1        0.1401
     23 F          63.2013   78.9507    8.7288 F       1  UNL1       -0.2042
     24 C          63.1590   80.8822   10.4659 C.ar    1  UNL1        0.0296
     25 C          63.9208   87.2535   15.7758 C.3     1  UNL1        0.0473
     26 C          63.7040   88.6835   15.3781 C.3     1  UNL1        0.0038
     27 C          63.1582   89.6643   16.3731 C.3     1  UNL1        0.0005
     28 C          63.9298   90.9082   16.7009 C.3     1  UNL1        0.0047
     29 C          64.3146   91.8617   15.6087 C.3     1  UNL1        0.0261
     30 C          67.7735   91.9146   13.6637 C.ar    1  UNL1        0.1342
     31 C          68.6579   92.5803   14.6761 C.ar    1  UNL1        0.0365
     32 C          68.0944   93.0064   15.9993 C.ar    1  UNL1        0.0028
     33 C          66.6467   92.7669   16.3102 C.ar    1  UNL1       -0.0044
     34 C          65.7624   92.1012   15.2978 C.ar    1  UNL1       -0.0232
     35 C          66.3258   91.6751   13.9745 C.ar    1  UNL1        0.0082
     36 C          65.4414   91.0094   12.9622 C.3     1  UNL1        0.0350
     37 C          64.2449   91.7337   12.4201 C.3     1  UNL1        0.0465
     38 C          64.2414   92.2185   11.0006 C.2     1  UNL1        0.0507
     39 O          63.4513   91.4833    9.9589 O.co2   1  UNL1       -0.5492
     40 O          65.0279   93.4387   10.6229 O.co2   1  UNL1       -0.5492
     41 O          68.3370   91.4885   12.3404 O.3     1  UNL1       -0.4758
     42 C          67.8088   92.0897   11.0717 C.3     1  UNL1        0.2058
     43 C          68.7559   92.4819    9.9766 C.3     1  UNL1        0.0532
     44 C          68.2380   93.1671    8.7468 C.3     1  UNL1        0.0455
     45 O          67.7323   95.3094   10.1269 O.co2   1  UNL1       -0.5492
     46 C          67.6142   94.5271    8.8525 C.2     1  UNL1        0.0505
     47 O          66.8722   95.1047    7.6838 O.co2   1  UNL1       -0.5492
@<TRIPOS>UNITY_ATOM_ATTR
39 1
charge -1
45 1
charge -1
@<TRIPOS>BOND
     1    45    46   ar
     2    46    47   ar
     3    46    44    1
     4    44    43    1
     5    43    42    1
     6    42    41    1
     7    41    30    1
     8    30    31   ar
     9    31    32   ar
    10    32    33   ar
    11    33    34   ar
    12    34    29    1
    13    29    28    1
    14    28    27    1
    15    27    26    1
    16    26    25    1
    17    25     1    1
    18     1     2    1
    19     2     3    1
    20     3     4   ar
    21     4     5   ar
    22     5    18    1
    23    18    19   ar
    24    19    20   ar
    25    20    21   ar
    26    21    22   ar
    27    22    23    1
    28    22    24   ar
    29     5     6   ar
    30     6     7   ar
    31     7     9    1
    32     9    10   ar
    33    10    11   ar
    34    11    12   ar
    35    12    13   ar
    36    13    14   ar
    37    13    15    1
    38    15    16    1
    39    16    17    1
    40     7     8   ar
    41    34    35   ar
    42    35    36    1
    43    36    37    1
    44    37    38    1
    45    38    39   ar
    46    38    40   ar
    47    35    30   ar
    48     8     3   ar
    49    24    18   ar
    50    14     9   ar
    51    17    12    1
@<TRIPOS>MOLECULE
*****
 47 51 0 0 0
SMALL
GASTEIGER

@<TRIPOS>ATOM
      1 C          63.8584   90.7976   16.3376 C.3     1  UNL1        0.2054
      2 O          64.8254   91.5126   15.4411 O.3     1  UNL1       -0.4755
      3 C          64.6165   91.5061   13.9557 C.ar    1  UNL1        0.1386
      4 C          65.5426   92.2796   13.0647 C.ar    1  UNL1        0.0369
      5 C          65.3337   92.2731   11.5793 C.ar    1  UNL1        0.0031
      6 C          64.1987   91.4931   10.9850 C.ar    1  UNL1        0.0002
      7 C          63.2725   90.7196   11.8760 C.ar    1  UNL1        0.0031
      8 C          63.4814   90.7261   13.3614 C.ar    1  UNL1        0.0369
      9 C          62.1374   89.9396   11.2816 C.ar    1  UNL1        0.0033
     10 C          60.7670   90.0321   11.8845 C.ar    1  UNL1        0.0033
     11 C          59.6320   89.2521   11.2902 C.ar    1  UNL1        0.0402
     12 C          59.8673   88.3796   10.0930 C.ar    1  UNL1        0.1764
     13 C          61.2377   88.2871    9.4900 C.ar    1  UNL1        0.1764
     14 C          62.3727   89.0671   10.0844 C.ar    1  UNL1        0.0402
     15 O          61.1671   87.3511    8.3200 O.3     1  UNL1       -0.4346
     16 C          59.7531   86.8652    8.1998 C.3     1  UNL1        0.4294
     17 O          58.9498   87.5008    9.2955 O.3     1  UNL1       -0.4346
     18 C          66.2599   93.0466   10.6882 C.ar    1  UNL1        0.0023
     19 C          66.0619   94.5215   10.5003 C.ar    1  UNL1        0.0001
     20 C          66.9880   95.2950    9.6093 C.ar    1  UNL1        0.0023
     21 C          68.1121   94.5936    8.9060 C.ar    1  UNL1        0.0296
     22 C          68.3100   93.1185    9.0939 C.ar    1  UNL1        0.1401
     23 F          69.4340   92.4171    8.3907 F       1  UNL1       -0.2042
     24 C          67.3838   92.3451    9.9850 C.ar    1  UNL1        0.0296
     25 C          63.1999   89.5324   15.8731 C.3     1  UNL1        0.0473
     26 C          62.3935   88.7101   16.8341 C.3     1  UNL1        0.0038
     27 C          63.0630   87.6547   17.6635 C.3     1  UNL1        0.0005
     28 C          63.0558   86.2257   17.2073 C.3     1  UNL1        0.0047
     29 C          64.0514   85.7591   16.1869 C.3     1  UNL1        0.0261
     30 C          63.0390   84.6869   12.5025 C.ar    1  UNL1        0.1342
     31 C          63.0679   86.0136   11.8031 C.ar    1  UNL1        0.0365
     32 C          63.4246   87.2555   12.5651 C.ar    1  UNL1        0.0028
     33 C          63.7524   87.1707   14.0264 C.ar    1  UNL1       -0.0044
     34 C          63.7235   85.8440   14.7257 C.ar    1  UNL1       -0.0232
     35 C          63.3668   84.6020   13.9638 C.ar    1  UNL1        0.0082
     36 C          63.3380   83.2754   14.6631 C.3     1  UNL1        0.0350
     37 C          62.0330   82.5659   14.8719 C.3     1  UNL1        0.0465
     38 C          61.8443   81.1732   14.3477 C.2     1  UNL1        0.0507
     39 O          60.4723   80.6886   13.9831 O.co2   1  UNL1       -0.5492
     40 O          63.0275   80.2652   14.1880 O.co2   1  UNL1       -0.5492
     41 O          62.6823   83.4450   11.7405 O.3     1  UNL1       -0.4758
     42 C          63.5252   83.0100   10.5785 C.3     1  UNL1        0.2058
     43 C          63.7892   81.5516   10.3479 C.3     1  UNL1        0.0532
     44 C          62.8534   80.5221   10.9085 C.3     1  UNL1        0.0455
     45 O          62.5457   77.9723   11.3011 O.co2   1  UNL1       -0.5492
     46 C          62.8900   79.1144   10.3916 C.2     1  UNL1        0.0505
     47 O          63.2710   78.8489    8.9653 O.co2   1  UNL1       -0.5492
@<TRIPOS>UNITY_ATOM_ATTR
39 1
charge -1
45 1
charge -1
@<TRIPOS>BOND
     1    45    46   ar
     2    46    47   ar
     3    46    44    1
     4    44    43    1
     5    43    42    1
     6    42    41    1
     7    41    30    1
     8    30    31   ar
     9    31    32   ar
    10    32    33   ar
    11    33    34   ar
    12    34    29    1
    13    29    28    1
    14    28    27    1
    15    27    26    1
    16    26    25    1
    17    25     1    1
    18     1     2    1
    19     2     3    1
    20     3     4   ar
    21     4     5   ar
    22     5    18    1
    23    18    19   ar
    24    19    20   ar
    25    20    21   ar
    26    21    22   ar
    27    22    23    1
    28    22    24   ar
    29     5     6   ar
    30     6     7   ar
    31     7     9    1
    32     9    10   ar
    33    10    11   ar
    34    11    12   ar
    35    12    13   ar
    36    13    14   ar
    37    13    15    1
    38    15    16    1
    39    16    17    1
    40     7     8   ar
    41    34    35   ar
    42    35    36    1
    43    36    37    1
    44    37    38    1
    45    38    39   ar
    46    38    40   ar
    47    35    30   ar
    48     8     3   ar
    49    24    18   ar
    50    14     9   ar
    51    17    12    1
