@<TRIPOS>MOLECULE
*****
 42 45 0 0 0
SMALL
GASTEIGER

@<TRIPOS>ATOM
      1 C          62.7881   89.6866   12.9017 C.3     1  UNL1        0.1484
      2 O          61.5618   89.9489   13.7246 O.3     1  UNL1       -0.3810
      3 H          60.8001   89.5046   13.3205 H       1  UNL1        0.2105
      4 C          62.6949   88.8439   11.6642 C.3     1  UNL1        0.1245
      5 N          61.4396   88.8536   10.8431 N.am    1  UNL1       -0.2735
      6 C          60.9865   87.6024   10.1509 C.2     1  UNL1        0.2492
      7 O          59.7312   87.6121    9.3299 O.2     1  UNL1       -0.2699
      8 C          61.7887   86.3415   10.2798 C.ar    1  UNL1        0.0567
      9 C          62.5657   85.8236    9.1058 C.ar    1  UNL1        0.0063
     10 C          63.3679   84.5628    9.2347 C.ar    1  UNL1        0.0225
     11 C          63.3931   83.8197   10.5375 C.ar    1  UNL1        0.1202
     12 N          64.0876   82.5593   10.9608 N.ar    1  UNL1       -0.1950
     13 C          63.7398   82.2982   12.3963 C.ar    1  UNL1        0.2859
     14 N          64.2175   81.1412   13.2229 N.pl3   1  UNL1       -0.3128
     15 O          62.8304   83.3972   12.8602 O.2     1  UNL1       -0.4240
     16 C          62.6161   84.3375   11.7114 C.ar    1  UNL1        0.1661
     17 C          61.8139   85.5984   11.5825 C.ar    1  UNL1        0.0437
     18 H          64.8159   80.4671   12.8269 H       1  UNL1        0.1466
     19 H          63.9326   81.0558   14.1614 H       1  UNL1        0.1466
     20 C          60.6373   90.1145   10.7143 C.3     1  UNL1        0.0937
     21 C          58.6750   91.6140   11.5210 C.3     1  UNL1        0.0018
     22 C          59.3866   90.2936   11.5229 C.3     1  UNL1        0.0199
     23 C          58.8477   89.1522   12.3334 C.3     1  UNL1        0.0018
     24 C          64.1078   90.2669   13.3162 C.3     1  UNL1        0.1075
     25 N          64.7237   91.3762   12.5162 N.am    1  UNL1       -0.2695
     26 C          65.3926   92.5228   13.2148 C.2     1  UNL1        0.4020
     27 O          65.4455   92.5599   14.7135 O.2     1  UNL1       -0.2264
     28 H          64.6890   91.3519   11.5326 H       1  UNL1        0.1528
     29 O          66.0085   93.6321   12.4149 O.3     1  UNL1       -0.4291
     30 C          66.3473   93.4161   10.9697 C.3     1  UNL1        0.2447
     31 C          66.7530   94.5784   10.1126 C.ar    1  UNL1        0.0714
     32 C          67.4099   94.4944    8.7667 C.ar    1  UNL1        0.1053
     33 N          67.6360   95.8927    8.2732 N.ar    1  UNL1       -0.2350
     34 C          67.1189   96.8409    9.3142 C.ar    1  UNL1        0.1343
     35 S          66.5733   96.0286   10.4510 S.2     1  UNL1       -0.0652
     36 C          64.8115   89.7378   14.5306 C.3     1  UNL1        0.0485
     37 C          64.2441   88.5658   15.2751 C.ar    1  UNL1       -0.0204
     38 C          63.3811   88.7899   16.4813 C.ar    1  UNL1       -0.0042
     39 C          62.8136   87.6178   17.2258 C.ar    1  UNL1       -0.0003
     40 C          63.1092   86.2216   16.7641 C.ar    1  UNL1       -0.0000
     41 C          63.9723   85.9974   15.5578 C.ar    1  UNL1       -0.0003
     42 C          64.5397   87.1695   14.8134 C.ar    1  UNL1       -0.0042
@<TRIPOS>BOND
     1    21    22    1
     2    22    23    1
     3    22    20    1
     4    20     5    1
     5     5     4    1
     6     4     1    1
     7     1     2    1
     8     1    24    1
     9    24    36    1
    10    36    37    1
    11    37    38   ar
    12    38    39   ar
    13    39    40   ar
    14    40    41   ar
    15    41    42   ar
    16    24    25    1
    17    25    26   am
    18    26    27    2
    19    26    29    1
    20    29    30    1
    21    30    31    1
    22    31    32   ar
    23    32    33   ar
    24    33    34   ar
    25    34    35   ar
    26     5     6   am
    27     6     7    2
    28     6     8    1
    29     8     9   ar
    30     9    10   ar
    31    10    11   ar
    32    11    12   ar
    33    12    13   ar
    34    13    14    1
    35    13    15   ar
    36    15    16   ar
    37    16    17   ar
    38    42    37   ar
    39    35    31   ar
    40    17     8   ar
    41    16    11   ar
    42     2     3    1
    43    25    28    1
    44    14    18    1
    45    14    19    1
@<TRIPOS>MOLECULE
*****
 42 45 0 0 0
SMALL
GASTEIGER

@<TRIPOS>ATOM
      1 C          62.7469   89.2997   12.6742 C.3     1  UNL1        0.1484
      2 O          61.3951   89.7480   13.1450 O.3     1  UNL1       -0.3810
      3 H          60.7142   89.1633   12.7769 H       1  UNL1        0.2105
      4 C          62.8696   88.1078   11.7717 C.3     1  UNL1        0.1245
      5 N          62.2643   88.1405   10.3997 N.am    1  UNL1       -0.2735
      6 C          62.1027   86.8689    9.6207 C.2     1  UNL1        0.2492
      7 O          61.4973   86.9015    8.2487 O.2     1  UNL1       -0.2699
      8 C          62.5464   85.5645   10.2139 C.ar    1  UNL1        0.0567
      9 C          63.4024   84.6289    9.4127 C.ar    1  UNL1        0.0063
     10 C          63.8461   83.3246   10.0058 C.ar    1  UNL1        0.0225
     11 C          63.4338   82.9558   11.4001 C.ar    1  UNL1        0.1202
     12 N          63.7155   81.7479   12.2438 N.ar    1  UNL1       -0.1950
     13 C          63.0336   81.9371   13.5664 C.ar    1  UNL1        0.2859
     14 N          63.0517   80.9711   14.7138 N.pl3   1  UNL1       -0.3128
     15 O          62.3304   83.2618   13.5401 O.2     1  UNL1       -0.4240
     16 C          62.5777   83.8914   12.2013 C.ar    1  UNL1        0.1661
     17 C          62.1340   85.1957   11.6081 C.ar    1  UNL1        0.0437
     18 H          63.5442   80.1223   14.6350 H       1  UNL1        0.1466
     19 H          62.5711   81.1859   15.5458 H       1  UNL1        0.1466
     20 C          61.8205   89.4449    9.8065 C.3     1  UNL1        0.0937
     21 C          59.5994   90.4118   10.7454 C.3     1  UNL1        0.0018
     22 C          60.3581   89.7353    9.6424 C.3     1  UNL1        0.0199
     23 C          59.6543   89.3490    8.3753 C.3     1  UNL1        0.0018
     24 C          63.9760   90.0434   13.1058 C.3     1  UNL1        0.1075
     25 N          64.4346   91.2457   12.3349 N.am    1  UNL1       -0.2695
     26 C          65.1434   92.3635   13.0407 C.2     1  UNL1        0.4020
     27 O          65.3936   92.2790   14.5173 O.2     1  UNL1       -0.2264
     28 H          64.2703   91.3011   11.3658 H       1  UNL1        0.1528
     29 O          65.6020   93.5658   12.2699 O.3     1  UNL1       -0.4291
     30 C          66.5084   93.3972   11.0867 C.3     1  UNL1        0.2447
     31 C          66.8398   94.5771   10.2216 C.ar    1  UNL1        0.0714
     32 C          66.6862   96.0199   10.6019 C.ar    1  UNL1        0.1053
     33 N          67.1344   96.8558    9.4398 N.ar    1  UNL1       -0.2350
     34 C          67.5649   95.9295    8.3413 C.ar    1  UNL1        0.1343
     35 S          67.3828   94.5212    8.8245 S.2     1  UNL1       -0.0652
     36 C          64.7465   89.5847   14.3083 C.3     1  UNL1        0.0485
     37 C          64.2031   88.4860   15.1729 C.ar    1  UNL1       -0.0204
     38 C          64.5149   87.0545   14.8509 C.ar    1  UNL1       -0.0042
     39 C          63.9715   85.9558   15.7156 C.ar    1  UNL1       -0.0003
     40 C          63.1164   86.2886   16.9021 C.ar    1  UNL1       -0.0000
     41 C          62.8047   87.7200   17.2241 C.ar    1  UNL1       -0.0003
     42 C          63.3480   88.8188   16.3595 C.ar    1  UNL1       -0.0042
@<TRIPOS>BOND
     1    21    22    1
     2    22    23    1
     3    22    20    1
     4    20     5    1
     5     5     4    1
     6     4     1    1
     7     1     2    1
     8     1    24    1
     9    24    36    1
    10    36    37    1
    11    37    38   ar
    12    38    39   ar
    13    39    40   ar
    14    40    41   ar
    15    41    42   ar
    16    24    25    1
    17    25    26   am
    18    26    27    2
    19    26    29    1
    20    29    30    1
    21    30    31    1
    22    31    32   ar
    23    32    33   ar
    24    33    34   ar
    25    34    35   ar
    26     5     6   am
    27     6     7    2
    28     6     8    1
    29     8     9   ar
    30     9    10   ar
    31    10    11   ar
    32    11    12   ar
    33    12    13   ar
    34    13    14    1
    35    13    15   ar
    36    15    16   ar
    37    16    17   ar
    38    42    37   ar
    39    35    31   ar
    40    17     8   ar
    41    16    11   ar
    42     2     3    1
    43    25    28    1
    44    14    18    1
    45    14    19    1
@<TRIPOS>MOLECULE
*****
 42 45 0 0 0
SMALL
GASTEIGER

@<TRIPOS>ATOM
      1 C          61.9677   89.2962   11.9403 C.3     1  UNL1        0.1484
      2 O          60.9407   90.0300   12.7507 O.3     1  UNL1       -0.3810
      3 H          61.3859   90.6112   13.3870 H       1  UNL1        0.2105
      4 C          63.4281   89.5302   12.1909 C.3     1  UNL1        0.1245
      5 N          63.8652   90.6520   13.0855 N.am    1  UNL1       -0.2735
      6 C          64.0861   90.4025   14.5480 C.2     1  UNL1        0.2492
      7 O          64.5232   91.5244   15.4426 O.2     1  UNL1       -0.2699
      8 C          63.8700   89.0311   15.1159 C.ar    1  UNL1        0.0567
      9 C          63.1928   88.8676   16.4443 C.ar    1  UNL1        0.0063
     10 C          62.9767   87.4962   17.0122 C.ar    1  UNL1        0.0225
     11 C          63.4377   86.2883   16.2516 C.ar    1  UNL1        0.1202
     12 N          63.3629   84.8214   16.5564 N.ar    1  UNL1       -0.1950
     13 C          63.9938   84.0784   15.4164 C.ar    1  UNL1        0.2859
     14 N          64.1352   82.5892   15.3051 N.pl3   1  UNL1       -0.3128
     15 O          64.4586   85.0860   14.4070 O.2     1  UNL1       -0.4240
     16 C          64.1149   86.4518   14.9232 C.ar    1  UNL1        0.1661
     17 C          64.3310   87.8232   14.3554 C.ar    1  UNL1        0.0437
     18 H          63.7967   82.0075   16.0237 H       1  UNL1        0.1466
     19 H          64.5665   82.1934   14.5135 H       1  UNL1        0.1466
     20 C          64.0814   92.0235   12.5176 C.3     1  UNL1        0.0937
     21 C          65.5662   92.7858   10.5266 C.3     1  UNL1        0.0018
     22 C          65.4248   92.4055   11.9706 C.3     1  UNL1        0.0199
     23 C          66.6270   92.4073   12.8679 C.3     1  UNL1        0.0018
     24 C          61.5345   88.3284   10.8793 C.3     1  UNL1        0.1075
     25 N          61.4499   88.7720    9.4488 N.am    1  UNL1       -0.2695
     26 C          60.2424   88.4295    8.6276 C.2     1  UNL1        0.4020
     27 O          59.1194   87.6435    9.2367 O.2     1  UNL1       -0.2264
     28 H          62.1870   89.2879    9.0491 H       1  UNL1        0.1528
     29 O          60.1578   88.8731    7.1972 O.3     1  UNL1       -0.4291
     30 C          58.8501   89.3457    6.6345 C.3     1  UNL1        0.2447
     31 C          58.8184   90.5031    5.6808 C.ar    1  UNL1        0.0714
     32 C          57.5903   91.2247    5.2107 C.ar    1  UNL1        0.1053
     33 N          58.0221   92.3096    4.2691 N.ar    1  UNL1       -0.2350
     34 C          59.5171   92.2585    4.1574 C.ar    1  UNL1        0.1343
     35 S          60.0092   91.1420    5.0299 S.2     1  UNL1       -0.0652
     36 C          61.1858   86.9171   11.2487 C.3     1  UNL1        0.0485
     37 C          62.0614   85.7857   10.7980 C.ar    1  UNL1       -0.0204
     38 C          62.4748   85.6843    9.3597 C.ar    1  UNL1       -0.0042
     39 C          63.3505   84.5528    8.9090 C.ar    1  UNL1       -0.0003
     40 C          63.8128   83.5229    9.8966 C.ar    1  UNL1       -0.0000
     41 C          63.3993   83.6243   11.3349 C.ar    1  UNL1       -0.0003
     42 C          62.5237   84.7556   11.7856 C.ar    1  UNL1       -0.0042
@<TRIPOS>BOND
     1    21    22    1
     2    22    23    1
     3    22    20    1
     4    20     5    1
     5     5     4    1
     6     4     1    1
     7     1     2    1
     8     1    24    1
     9    24    36    1
    10    36    37    1
    11    37    38   ar
    12    38    39   ar
    13    39    40   ar
    14    40    41   ar
    15    41    42   ar
    16    24    25    1
    17    25    26   am
    18    26    27    2
    19    26    29    1
    20    29    30    1
    21    30    31    1
    22    31    32   ar
    23    32    33   ar
    24    33    34   ar
    25    34    35   ar
    26     5     6   am
    27     6     7    2
    28     6     8    1
    29     8     9   ar
    30     9    10   ar
    31    10    11   ar
    32    11    12   ar
    33    12    13   ar
    34    13    14    1
    35    13    15   ar
    36    15    16   ar
    37    16    17   ar
    38    42    37   ar
    39    35    31   ar
    40    17     8   ar
    41    16    11   ar
    42     2     3    1
    43    25    28    1
    44    14    18    1
    45    14    19    1
@<TRIPOS>MOLECULE
*****
 42 45 0 0 0
SMALL
GASTEIGER

@<TRIPOS>ATOM
      1 C          62.3746   89.3947   12.2707 C.3     1  UNL1        0.1484
      2 O          61.5740   90.0121   13.3787 O.3     1  UNL1       -0.3810
      3 H          61.6839   89.4883   14.1877 H       1  UNL1        0.2105
      4 C          63.1761   88.1528   12.5265 C.3     1  UNL1        0.1245
      5 N          64.0238   88.0481   13.7595 N.am    1  UNL1       -0.2735
      6 C          64.3306   86.7023   14.3467 C.2     1  UNL1        0.2492
      7 O          65.1783   86.5976   15.5798 O.2     1  UNL1       -0.2699
      8 C          63.7896   85.4612   13.7009 C.ar    1  UNL1        0.0567
      9 C          63.1758   85.5335   12.3341 C.ar    1  UNL1        0.0063
     10 C          62.6349   84.2924   11.6884 C.ar    1  UNL1        0.0225
     11 C          62.7077   82.9791   12.4093 C.ar    1  UNL1        0.1202
     12 N          62.2609   81.5988   12.0282 N.ar    1  UNL1       -0.1950
     13 C          62.5985   80.6735   13.1595 C.ar    1  UNL1        0.2859
     14 N          62.3282   79.1986   13.2029 N.pl3   1  UNL1       -0.3128
     15 O          63.2539   81.4819   14.2397 O.2     1  UNL1       -0.4240
     16 C          63.3214   82.9068   13.7761 C.ar    1  UNL1        0.1661
     17 C          63.8623   84.1479   14.4219 C.ar    1  UNL1        0.0437
     18 H          61.8906   78.7557   12.4403 H       1  UNL1        0.1466
     19 H          62.5883   78.6736   13.9940 H       1  UNL1        0.1466
     20 C          64.5648   89.2892   14.4054 C.3     1  UNL1        0.0937
     21 C          64.0973   91.2934   15.9911 C.3     1  UNL1        0.0018
     22 C          63.8961   89.8530   15.6239 C.3     1  UNL1        0.0199
     23 C          63.0260   88.9765   16.4753 C.3     1  UNL1        0.0018
     24 C          62.3736   90.0190   10.9068 C.3     1  UNL1        0.1075
     25 N          63.5912   90.7421   10.4121 N.am    1  UNL1       -0.2695
     26 C          64.3012   91.7144   11.3067 C.2     1  UNL1        0.4020
     27 O          63.7936   91.9637   12.6961 O.2     1  UNL1       -0.2264
     28 H          63.9244   90.5784    9.5002 H       1  UNL1        0.1528
     29 O          65.5188   92.4375   10.8121 O.3     1  UNL1       -0.4291
     30 C          66.1788   93.4721   11.6747 C.3     1  UNL1        0.2447
     31 C          66.7063   93.0952   13.0274 C.ar    1  UNL1        0.0714
     32 C          66.5498   93.8925   14.2882 C.ar    1  UNL1        0.1053
     33 N          67.2297   93.1450   15.3968 N.ar    1  UNL1       -0.2350
     34 C          67.8064   91.8856   14.8210 C.ar    1  UNL1        0.1343
     35 S          67.4829   91.8548   13.3566 S.2     1  UNL1       -0.0652
     36 C          61.1551   89.9203   10.0376 C.3     1  UNL1        0.0485
     37 C          60.8652   88.6502    9.2941 C.ar    1  UNL1       -0.0204
     38 C          59.6388   88.5464    8.4367 C.ar    1  UNL1       -0.0042
     39 C          59.3488   87.2763    7.6931 C.ar    1  UNL1       -0.0003
     40 C          60.2852   86.1101    7.8071 C.ar    1  UNL1       -0.0000
     41 C          61.5116   86.2139    8.6645 C.ar    1  UNL1       -0.0003
     42 C          61.8016   87.4840    9.4080 C.ar    1  UNL1       -0.0042
@<TRIPOS>BOND
     1    21    22    1
     2    22    23    1
     3    22    20    1
     4    20     5    1
     5     5     4    1
     6     4     1    1
     7     1     2    1
     8     1    24    1
     9    24    36    1
    10    36    37    1
    11    37    38   ar
    12    38    39   ar
    13    39    40   ar
    14    40    41   ar
    15    41    42   ar
    16    24    25    1
    17    25    26   am
    18    26    27    2
    19    26    29    1
    20    29    30    1
    21    30    31    1
    22    31    32   ar
    23    32    33   ar
    24    33    34   ar
    25    34    35   ar
    26     5     6   am
    27     6     7    2
    28     6     8    1
    29     8     9   ar
    30     9    10   ar
    31    10    11   ar
    32    11    12   ar
    33    12    13   ar
    34    13    14    1
    35    13    15   ar
    36    15    16   ar
    37    16    17   ar
    38    42    37   ar
    39    35    31   ar
    40    17     8   ar
    41    16    11   ar
    42     2     3    1
    43    25    28    1
    44    14    18    1
    45    14    19    1
@<TRIPOS>MOLECULE
*****
 42 45 0 0 0
SMALL
GASTEIGER

@<TRIPOS>ATOM
      1 C          62.3733   85.6323   11.5225 C.3     1  UNL1        0.1484
      2 O          63.0767   84.9910   10.3633 O.3     1  UNL1       -0.3810
      3 H          63.2991   84.0738   10.5873 H       1  UNL1        0.2105
      4 C          62.1221   84.8465   12.7753 C.3     1  UNL1        0.1245
      5 N          63.1628   83.8938   13.2845 N.am    1  UNL1       -0.2735
      6 C          63.9599   84.2375   14.5078 C.2     1  UNL1        0.2492
      7 O          65.0007   83.2848   15.0169 O.2     1  UNL1       -0.2699
      8 C          63.7162   85.5339   15.2220 C.ar    1  UNL1        0.0567
      9 C          62.9688   85.5448   16.5224 C.ar    1  UNL1        0.0063
     10 C          62.7251   86.8411   17.2366 C.ar    1  UNL1        0.0225
     11 C          63.2290   88.1266   16.6503 C.ar    1  UNL1        0.1202
     12 N          63.1409   89.5477   17.1225 N.ar    1  UNL1       -0.1950
     13 C          63.8339   90.4150   16.1139 C.ar    1  UNL1        0.2859
     14 N          63.9842   91.9057   16.1877 N.pl3   1  UNL1       -0.3128
     15 O          64.3503   89.5300   15.0184 O.2     1  UNL1       -0.4240
     16 C          63.9765   88.1157   15.3499 C.ar    1  UNL1        0.1661
     17 C          64.2201   86.8194   14.6358 C.ar    1  UNL1        0.0437
     18 H          63.6086   92.4011   16.9511 H       1  UNL1        0.1466
     19 H          64.4584   92.3887   15.4728 H       1  UNL1        0.1466
     20 C          63.4065   82.5974   12.5702 C.3     1  UNL1        0.0937
     21 C          62.7276   80.1328   12.1070 C.3     1  UNL1        0.0018
     22 C          62.6057   81.3811   12.9297 C.3     1  UNL1        0.0199
     23 C          61.6829   81.4131   14.1119 C.3     1  UNL1        0.0018
     24 C          61.9211   87.0595   11.4290 C.3     1  UNL1        0.1075
     25 N          62.8953   88.1727   11.6775 N.am    1  UNL1       -0.2695
     26 C          62.4124   89.4841   12.2226 C.2     1  UNL1        0.4020
     27 O          60.9554   89.6822   12.5191 O.2     1  UNL1       -0.2264
     28 H          63.8515   88.0427   11.4829 H       1  UNL1        0.1528
     29 O          63.3865   90.5973   12.4712 O.3     1  UNL1       -0.4291
     30 C          63.9956   91.3331   11.3146 C.3     1  UNL1        0.2447
     31 C          65.0194   92.4015   11.5608 C.ar    1  UNL1        0.0714
     32 C          65.7190   92.6696   12.8603 C.ar    1  UNL1        0.1053
     33 N          66.6552   93.8231   12.6535 N.ar    1  UNL1       -0.2350
     34 C          66.5342   94.2680   11.2260 C.ar    1  UNL1        0.1343
     35 S          65.5232   93.3894   10.5508 S.2     1  UNL1       -0.0652
     36 C          60.4948   87.3734   11.0869 C.3     1  UNL1        0.0485
     37 C          60.1161   87.6937    9.6714 C.ar    1  UNL1       -0.0204
     38 C          60.1554   89.1129    9.1873 C.ar    1  UNL1       -0.0042
     39 C          59.7766   89.4332    7.7716 C.ar    1  UNL1       -0.0003
     40 C          59.3586   88.3343    6.8401 C.ar    1  UNL1       -0.0000
     41 C          59.3193   86.9151    7.3242 C.ar    1  UNL1       -0.0003
     42 C          59.6980   86.5948    8.7398 C.ar    1  UNL1       -0.0042
@<TRIPOS>BOND
     1    21    22    1
     2    22    23    1
     3    22    20    1
     4    20     5    1
     5     5     4    1
     6     4     1    1
     7     1     2    1
     8     1    24    1
     9    24    36    1
    10    36    37    1
    11    37    38   ar
    12    38    39   ar
    13    39    40   ar
    14    40    41   ar
    15    41    42   ar
    16    24    25    1
    17    25    26   am
    18    26    27    2
    19    26    29    1
    20    29    30    1
    21    30    31    1
    22    31    32   ar
    23    32    33   ar
    24    33    34   ar
    25    34    35   ar
    26     5     6   am
    27     6     7    2
    28     6     8    1
    29     8     9   ar
    30     9    10   ar
    31    10    11   ar
    32    11    12   ar
    33    12    13   ar
    34    13    14    1
    35    13    15   ar
    36    15    16   ar
    37    16    17   ar
    38    42    37   ar
    39    35    31   ar
    40    17     8   ar
    41    16    11   ar
    42     2     3    1
    43    25    28    1
    44    14    18    1
    45    14    19    1
@<TRIPOS>MOLECULE
*****
 42 45 0 0 0
SMALL
GASTEIGER

@<TRIPOS>ATOM
      1 C          62.8293   85.1448   11.7463 C.3     1  UNL1        0.1484
      2 O          63.8639   84.4642   10.8999 O.3     1  UNL1       -0.3810
      3 H          64.0908   83.6071   11.2934 H       1  UNL1        0.2105
      4 C          62.3175   84.4760   12.9877 C.3     1  UNL1        0.1245
      5 N          63.1777   83.4857   13.7151 N.am    1  UNL1       -0.2735
      6 C          63.8048   83.8573   15.0260 C.2     1  UNL1        0.2492
      7 O          64.6651   82.8670   15.7534 O.2     1  UNL1       -0.2699
      8 C          63.5717   85.2194   15.6095 C.ar    1  UNL1        0.0567
      9 C          62.7944   85.3664   16.8840 C.ar    1  UNL1        0.0063
     10 C          62.5613   86.7284   17.4674 C.ar    1  UNL1        0.0225
     11 C          63.1056   87.9435   16.7765 C.ar    1  UNL1        0.1202
     12 N          63.0362   89.4041   17.1114 N.ar    1  UNL1       -0.1950
     13 C          63.7706   90.1597   16.0439 C.ar    1  UNL1        0.2859
     14 N          63.9502   91.6477   15.9818 N.pl3   1  UNL1       -0.3128
     15 O          64.2939   89.1662   15.0493 O.2     1  UNL1       -0.4240
     16 C          63.8829   87.7965   15.5021 C.ar    1  UNL1        0.1661
     17 C          64.1159   86.4345   14.9186 C.ar    1  UNL1        0.0437
     18 H          63.5674   92.2195   16.6859 H       1  UNL1        0.1466
     19 H          64.4510   92.0524   15.2371 H       1  UNL1        0.1466
     20 C          63.4108   82.1236   13.1316 C.3     1  UNL1        0.0937
     21 C          61.2318   81.2614   14.2532 C.3     1  UNL1        0.0018
     22 C          62.3990   81.0358   13.3385 C.3     1  UNL1        0.0199
     23 C          62.5544   79.7223   12.6308 C.3     1  UNL1        0.0018
     24 C          62.3065   86.4941   11.3514 C.3     1  UNL1        0.1075
     25 N          62.8953   87.7334   11.9576 N.am    1  UNL1       -0.2695
     26 C          62.7466   89.0530   11.2601 C.2     1  UNL1        0.4020
     27 O          62.0090   89.1333    9.9564 O.2     1  UNL1       -0.2264
     28 H          63.3794   87.6807   12.8133 H       1  UNL1        0.1528
     29 O          63.3354   90.2923   11.8662 O.3     1  UNL1       -0.4291
     30 C          63.8560   91.3857   10.9811 C.3     1  UNL1        0.2447
     31 C          64.9436   92.2945   11.4723 C.ar    1  UNL1        0.0714
     32 C          65.6582   93.3336   10.6602 C.ar    1  UNL1        0.1053
     33 N          66.6638   94.0051   11.5478 N.ar    1  UNL1       -0.2350
     34 C          66.5707   93.3808   12.9086 C.ar    1  UNL1        0.1343
     35 S          65.5076   92.3237   12.8619 S.2     1  UNL1       -0.0652
     36 C          61.1949   86.6042   10.3503 C.3     1  UNL1        0.0485
     37 C          61.3498   85.9965    8.9878 C.ar    1  UNL1       -0.0204
     38 C          60.1627   85.8826    8.0779 C.ar    1  UNL1       -0.0042
     39 C          60.3177   85.2749    6.7153 C.ar    1  UNL1       -0.0003
     40 C          61.6598   84.7812    6.2625 C.ar    1  UNL1       -0.0000
     41 C          62.8469   84.8951    7.1723 C.ar    1  UNL1       -0.0003
     42 C          62.6919   85.5027    8.5349 C.ar    1  UNL1       -0.0042
@<TRIPOS>BOND
     1    21    22    1
     2    22    23    1
     3    22    20    1
     4    20     5    1
     5     5     4    1
     6     4     1    1
     7     1     2    1
     8     1    24    1
     9    24    36    1
    10    36    37    1
    11    37    38   ar
    12    38    39   ar
    13    39    40   ar
    14    40    41   ar
    15    41    42   ar
    16    24    25    1
    17    25    26   am
    18    26    27    2
    19    26    29    1
    20    29    30    1
    21    30    31    1
    22    31    32   ar
    23    32    33   ar
    24    33    34   ar
    25    34    35   ar
    26     5     6   am
    27     6     7    2
    28     6     8    1
    29     8     9   ar
    30     9    10   ar
    31    10    11   ar
    32    11    12   ar
    33    12    13   ar
    34    13    14    1
    35    13    15   ar
    36    15    16   ar
    37    16    17   ar
    38    42    37   ar
    39    35    31   ar
    40    17     8   ar
    41    16    11   ar
    42     2     3    1
    43    25    28    1
    44    14    18    1
    45    14    19    1
@<TRIPOS>MOLECULE
*****
 42 45 0 0 0
SMALL
GASTEIGER

@<TRIPOS>ATOM
      1 C          62.8030   88.8024   12.6483 C.3     1  UNL1        0.1484
      2 O          62.0171   90.0610   12.4290 O.3     1  UNL1       -0.3810
      3 H          62.3211   90.7439   13.0472 H       1  UNL1        0.2105
      4 C          63.8686   88.7577   13.7032 C.3     1  UNL1        0.1245
      5 N          63.6606   89.4647   15.0097 N.am    1  UNL1       -0.2735
      6 C          64.3322   90.7813   15.2652 C.2     1  UNL1        0.2492
      7 O          64.1242   91.4883   16.5717 O.2     1  UNL1       -0.2699
      8 C          65.2119   91.3910   14.2142 C.ar    1  UNL1        0.0567
      9 C          66.7034   91.3484   14.3675 C.ar    1  UNL1        0.0063
     10 C          67.5830   91.9581   13.3165 C.ar    1  UNL1        0.0225
     11 C          66.9711   92.6104   12.1123 C.ar    1  UNL1        0.1202
     12 N          67.5791   93.2902   10.9214 N.ar    1  UNL1       -0.1950
     13 C          66.4633   93.7528   10.0321 C.ar    1  UNL1        0.2859
     14 N          66.6179   94.4814    8.7300 N.pl3   1  UNL1       -0.3128
     15 O          65.1657   93.3590   10.6734 O.2     1  UNL1       -0.4240
     16 C          65.4796   92.6529   11.9590 C.ar    1  UNL1        0.1661
     17 C          64.6000   92.0432   13.0100 C.ar    1  UNL1        0.0437
     18 H          67.5164   94.6963    8.3898 H       1  UNL1        0.1466
     19 H          65.8208   94.7447    8.2156 H       1  UNL1        0.1466
     20 C          62.7809   88.8550   16.0606 C.3     1  UNL1        0.0937
     21 C          62.7387   87.2594   18.1106 C.3     1  UNL1        0.0018
     22 C          63.1715   87.5584   16.7059 C.3     1  UNL1        0.0199
     23 C          63.9951   86.5609   15.9464 C.3     1  UNL1        0.0018
     24 C          62.5236   87.5885   11.8126 C.3     1  UNL1        0.1075
     25 N          63.4742   86.4283   11.8338 N.am    1  UNL1       -0.2695
     26 C          63.1817   85.2347   12.6940 C.2     1  UNL1        0.4020
     27 O          61.9387   85.2014   13.5330 O.2     1  UNL1       -0.2264
     28 H          64.2900   86.4502   11.2832 H       1  UNL1        0.1528
     29 O          64.1323   84.0746   12.7153 O.3     1  UNL1       -0.4291
     30 C          64.0805   83.0831   13.8396 C.3     1  UNL1        0.2447
     31 C          63.0706   81.9742   13.8159 C.ar    1  UNL1        0.0714
     32 C          61.7215   81.9963   14.4713 C.ar    1  UNL1        0.1053
     33 N          61.0495   80.6844   14.1931 N.ar    1  UNL1       -0.2350
     34 C          61.9833   79.8515   13.3658 C.ar    1  UNL1        0.1343
     35 S          63.2324   80.6487   13.1327 S.2     1  UNL1       -0.0652
     36 C          61.2936   87.5347   10.9558 C.3     1  UNL1        0.0485
     37 C          61.3112   86.7700    9.6655 C.ar    1  UNL1       -0.0204
     38 C          62.5748   86.1060    9.2045 C.ar    1  UNL1       -0.0042
     39 C          62.5924   85.3413    7.9141 C.ar    1  UNL1       -0.0003
     40 C          61.3465   85.2406    7.0849 C.ar    1  UNL1       -0.0000
     41 C          60.0830   85.9046    7.5460 C.ar    1  UNL1       -0.0003
     42 C          60.0653   86.6693    8.8363 C.ar    1  UNL1       -0.0042
@<TRIPOS>BOND
     1    21    22    1
     2    22    23    1
     3    22    20    1
     4    20     5    1
     5     5     4    1
     6     4     1    1
     7     1     2    1
     8     1    24    1
     9    24    36    1
    10    36    37    1
    11    37    38   ar
    12    38    39   ar
    13    39    40   ar
    14    40    41   ar
    15    41    42   ar
    16    24    25    1
    17    25    26   am
    18    26    27    2
    19    26    29    1
    20    29    30    1
    21    30    31    1
    22    31    32   ar
    23    32    33   ar
    24    33    34   ar
    25    34    35   ar
    26     5     6   am
    27     6     7    2
    28     6     8    1
    29     8     9   ar
    30     9    10   ar
    31    10    11   ar
    32    11    12   ar
    33    12    13   ar
    34    13    14    1
    35    13    15   ar
    36    15    16   ar
    37    16    17   ar
    38    42    37   ar
    39    35    31   ar
    40    17     8   ar
    41    16    11   ar
    42     2     3    1
    43    25    28    1
    44    14    18    1
    45    14    19    1
@<TRIPOS>MOLECULE
*****
 42 45 0 0 0
SMALL
GASTEIGER

@<TRIPOS>ATOM
      1 C          62.2709   89.0119   12.2502 C.3     1  UNL1        0.1484
      2 O          61.5560   89.8008   13.3069 O.3     1  UNL1       -0.3810
      3 H          61.6816   89.3745   14.1691 H       1  UNL1        0.2105
      4 C          63.0257   87.7704   12.6231 C.3     1  UNL1        0.1245
      5 N          63.9798   87.7919   13.7804 N.am    1  UNL1       -0.2735
      6 C          64.3594   86.5114   14.4632 C.2     1  UNL1        0.2492
      7 O          65.3135   86.5329   15.6205 O.2     1  UNL1       -0.2699
      8 C          63.7851   85.2095   13.9887 C.ar    1  UNL1        0.0567
      9 C          62.7408   84.5083   14.8058 C.ar    1  UNL1        0.0063
     10 C          62.1665   83.2064   14.3313 C.ar    1  UNL1        0.0225
     11 C          62.6365   82.6057   13.0397 C.ar    1  UNL1        0.1202
     12 N          62.2564   81.3442   12.3225 N.ar    1  UNL1       -0.1950
     13 C          63.0659   81.2658   11.0621 C.ar    1  UNL1        0.2859
     14 N          63.0057   80.1673   10.0424 N.pl3   1  UNL1       -0.3128
     15 O          63.9462   82.4788   11.0004 O.2     1  UNL1       -0.4240
     16 C          63.6808   83.3068   12.2226 C.ar    1  UNL1        0.1661
     17 C          64.2551   84.6087   12.6971 C.ar    1  UNL1        0.0437
     18 H          62.3923   79.4082   10.1722 H       1  UNL1        0.1466
     19 H          63.5795   80.2054    9.2433 H       1  UNL1        0.1466
     20 C          64.5541   89.0938   14.2548 C.3     1  UNL1        0.0937
     21 C          63.1044   89.0088   16.4092 C.3     1  UNL1        0.0018
     22 C          63.9714   89.7772   15.4563 C.3     1  UNL1        0.0199
     23 C          64.2556   91.2289   15.7048 C.3     1  UNL1        0.0018
     24 C          62.2309   89.4645   10.8207 C.3     1  UNL1        0.1075
     25 N          63.3440   90.3053   10.2689 N.am    1  UNL1       -0.2695
     26 C          63.9096   91.4299   11.0845 C.2     1  UNL1        0.4020
     27 O          63.3623   91.7138   12.4519 O.2     1  UNL1       -0.2264
     28 H          63.7032   90.1189    9.3714 H       1  UNL1        0.1528
     29 O          65.0226   92.2706   10.5327 O.3     1  UNL1       -0.4291
     30 C          65.6090   93.3756   11.3603 C.3     1  UNL1        0.2447
     31 C          66.5246   93.0516   12.5035 C.ar    1  UNL1        0.0714
     32 C          67.6276   92.0352   12.4889 C.ar    1  UNL1        0.1053
     33 N          68.2826   92.0425   13.8383 N.ar    1  UNL1       -0.2350
     34 C          67.5844   93.0635   14.6869 C.ar    1  UNL1        0.1343
     35 S          66.4979   93.6872   13.8619 S.2     1  UNL1       -0.0652
     36 C          61.0781   89.0765    9.9431 C.3     1  UNL1        0.0485
     37 C          61.1334   87.8035    9.1515 C.ar    1  UNL1       -0.0204
     38 C          62.3684   86.9529    9.1846 C.ar    1  UNL1       -0.0042
     39 C          62.4237   85.6799    8.3930 C.ar    1  UNL1       -0.0003
     40 C          61.2440   85.2576    7.5684 C.ar    1  UNL1       -0.0000
     41 C          60.0090   86.1083    7.5354 C.ar    1  UNL1       -0.0003
     42 C          59.9537   87.3812    8.3269 C.ar    1  UNL1       -0.0042
@<TRIPOS>BOND
     1    21    22    1
     2    22    23    1
     3    22    20    1
     4    20     5    1
     5     5     4    1
     6     4     1    1
     7     1     2    1
     8     1    24    1
     9    24    36    1
    10    36    37    1
    11    37    38   ar
    12    38    39   ar
    13    39    40   ar
    14    40    41   ar
    15    41    42   ar
    16    24    25    1
    17    25    26   am
    18    26    27    2
    19    26    29    1
    20    29    30    1
    21    30    31    1
    22    31    32   ar
    23    32    33   ar
    24    33    34   ar
    25    34    35   ar
    26     5     6   am
    27     6     7    2
    28     6     8    1
    29     8     9   ar
    30     9    10   ar
    31    10    11   ar
    32    11    12   ar
    33    12    13   ar
    34    13    14    1
    35    13    15   ar
    36    15    16   ar
    37    16    17   ar
    38    42    37   ar
    39    35    31   ar
    40    17     8   ar
    41    16    11   ar
    42     2     3    1
    43    25    28    1
    44    14    18    1
    45    14    19    1
@<TRIPOS>MOLECULE
*****
 42 45 0 0 0
SMALL
GASTEIGER

@<TRIPOS>ATOM
      1 C          63.2403   87.7073   12.5786 C.3     1  UNL1        0.1484
      2 O          63.9119   88.6718   13.5106 O.3     1  UNL1       -0.3810
      3 H          64.3026   88.1850   14.2532 H       1  UNL1        0.2105
      4 C          63.2539   86.2383   12.8819 C.3     1  UNL1        0.1245
      5 N          63.9424   85.7335   14.1153 N.am    1  UNL1       -0.2735
      6 C          64.3512   84.2934   14.2098 C.2     1  UNL1        0.2492
      7 O          65.0397   83.7886   15.4432 O.2     1  UNL1       -0.2699
      8 C          64.0715   83.3580   13.0709 C.ar    1  UNL1        0.0567
      9 C          64.2970   83.8082   11.6580 C.ar    1  UNL1        0.0063
     10 C          64.0174   82.8728   10.5192 C.ar    1  UNL1        0.0225
     11 C          63.5122   81.4873   10.7934 C.ar    1  UNL1        0.1202
     12 N          63.1509   80.3520    9.8819 N.ar    1  UNL1       -0.1950
     13 C          62.7022   79.2003   10.7316 C.ar    1  UNL1        0.2859
     14 N          62.2490   77.8603   10.2324 N.pl3   1  UNL1       -0.3128
     15 O          62.7861   79.6237   12.1681 O.2     1  UNL1       -0.4240
     16 C          63.2867   81.0372   12.2063 C.ar    1  UNL1        0.1661
     17 C          63.5663   81.9725   13.3451 C.ar    1  UNL1        0.0437
     18 H          62.2285   77.6764    9.2654 H       1  UNL1        0.1466
     19 H          61.9721   77.1647   10.8717 H       1  UNL1        0.1466
     20 C          64.2220   86.6688   15.2542 C.3     1  UNL1        0.0937
     21 C          63.0375   88.1169   17.0569 C.3     1  UNL1        0.0018
     22 C          63.2398   86.7933   16.3810 C.3     1  UNL1        0.0199
     23 C          62.4599   85.5939   16.8319 C.3     1  UNL1        0.0018
     24 C          62.5552   88.2117   11.3433 C.3     1  UNL1        0.1075
     25 N          63.1202   89.3846   10.5982 N.am    1  UNL1       -0.2695
     26 C          63.1473   90.7394   11.2415 C.2     1  UNL1        0.4020
     27 O          62.6094   90.9212   12.6300 O.2     1  UNL1       -0.2264
     28 H          63.4732   89.2653    9.6869 H       1  UNL1        0.1528
     29 O          63.7123   91.9123   10.4965 O.3     1  UNL1       -0.4291
     30 C          65.1691   92.2476   10.6192 C.3     1  UNL1        0.2447
     31 C          65.6900   92.8798   11.8758 C.ar    1  UNL1        0.0714
     32 C          66.1541   94.2987   12.0221 C.ar    1  UNL1        0.1053
     33 N          66.5892   94.4999   13.4434 N.ar    1  UNL1       -0.2350
     34 C          66.3940   93.2053   14.1756 C.ar    1  UNL1        0.1343
     35 S          65.8383   92.2041   13.2067 S.2     1  UNL1       -0.0652
     36 C          61.3051   87.5433   10.8530 C.3     1  UNL1        0.0485
     37 C          61.3300   86.7450    9.5833 C.ar    1  UNL1       -0.0204
     38 C          62.5846   86.0353    9.1681 C.ar    1  UNL1       -0.0042
     39 C          62.6095   85.2370    7.8984 C.ar    1  UNL1       -0.0003
     40 C          61.3799   85.1483    7.0440 C.ar    1  UNL1       -0.0000
     41 C          60.1253   85.8580    7.4592 C.ar    1  UNL1       -0.0003
     42 C          60.1003   86.6563    8.7289 C.ar    1  UNL1       -0.0042
@<TRIPOS>BOND
     1    21    22    1
     2    22    23    1
     3    22    20    1
     4    20     5    1
     5     5     4    1
     6     4     1    1
     7     1     2    1
     8     1    24    1
     9    24    36    1
    10    36    37    1
    11    37    38   ar
    12    38    39   ar
    13    39    40   ar
    14    40    41   ar
    15    41    42   ar
    16    24    25    1
    17    25    26   am
    18    26    27    2
    19    26    29    1
    20    29    30    1
    21    30    31    1
    22    31    32   ar
    23    32    33   ar
    24    33    34   ar
    25    34    35   ar
    26     5     6   am
    27     6     7    2
    28     6     8    1
    29     8     9   ar
    30     9    10   ar
    31    10    11   ar
    32    11    12   ar
    33    12    13   ar
    34    13    14    1
    35    13    15   ar
    36    15    16   ar
    37    16    17   ar
    38    42    37   ar
    39    35    31   ar
    40    17     8   ar
    41    16    11   ar
    42     2     3    1
    43    25    28    1
    44    14    18    1
    45    14    19    1
