@<TRIPOS>MOLECULE
*****
 34 38 0 0 0
SMALL
GASTEIGER

@<TRIPOS>ATOM
      1 O          63.4695   87.5058   12.9170 O.2     1  UNL1       -0.2699
      2 C          62.6979   86.8414   11.8155 C.2     1  UNL1        0.2506
      3 N          61.6634   87.6144   11.0526 N.am    1  UNL1       -0.2723
      4 C          60.8918   86.9500    9.9510 C.3     1  UNL1        0.1257
      5 C          59.8572   87.7231    9.1881 C.3     1  UNL1        0.1637
      6 O          59.5942   89.1604    9.5266 O.3     1  UNL1       -0.3502
      7 C          60.3657   89.8249   10.6281 C.3     1  UNL1        0.1622
      8 C          61.4003   89.0519   11.3911 C.3     1  UNL1        0.1097
      9 C          62.9610   85.4039   11.4770 C.ar    1  UNL1        0.0730
     10 C          63.0253   84.9710   10.0422 C.ar    1  UNL1        0.0070
     11 C          63.2884   83.5336    9.7037 C.ar    1  UNL1        0.0116
     12 C          63.4871   82.5292   10.7998 C.ar    1  UNL1        0.0592
     13 CL         63.7502   81.0917   10.4613 Cl      1  UNL1       -0.0822
     14 C          63.4228   82.9621   12.2345 C.ar    1  UNL1        0.0324
     15 C          63.1597   84.3995   12.5731 C.ar    1  UNL1        0.1081
     16 N          63.0954   84.8325   14.0078 N.ar    1  UNL1       -0.1476
     17 N          61.8917   84.7538   14.8994 N.ar    1  UNL1       -0.1447
     18 C          62.2759   85.2928   16.2455 C.ar    1  UNL1        0.1446
     19 C          63.7170   85.7046   16.1858 C.ar    1  UNL1        0.1446
     20 N          64.2235   85.4201   14.8029 N.ar    1  UNL1       -0.1447
     21 C          62.1718   89.7163   12.4926 C.3     1  UNL1        0.0510
     22 C          63.3234   90.6190   12.1628 C.ar    1  UNL1        0.0071
     23 C          64.3381   90.9551   13.2151 C.ar    1  UNL1        0.0011
     24 C          65.4898   91.8579   12.8853 C.ar    1  UNL1        0.0356
     25 C          65.6267   92.4246   11.5032 C.ar    1  UNL1        0.0053
     26 C          64.6119   92.0884   10.4509 C.ar    1  UNL1        0.0294
     27 C          63.4603   91.1857   10.7807 C.ar    1  UNL1        0.1362
     28 F          62.4456   90.8496    9.7284 F       1  UNL1       -0.2045
     29 C          66.5045   92.1940   13.9376 C.ar    1  UNL1        0.1622
     30 N          67.9599   92.2637   13.5811 N.ar    1  UNL1       -0.2250
     31 C          68.9746   92.5998   14.6333 C.ar    1  UNL1        0.1022
     32 C          68.5340   92.8662   16.0423 C.ar    1  UNL1        0.0414
     33 C          67.0786   92.7965   16.3988 C.ar    1  UNL1        0.1022
     34 N          66.0639   92.4604   15.3464 N.ar    1  UNL1       -0.2250
@<TRIPOS>BOND
     1     1     2    2
     2     2     9    1
     3     9    10   ar
     4    10    11   ar
     5    11    12   ar
     6    12    13    1
     7    12    14   ar
     8    14    15   ar
     9    15    16    1
    10    16    17   ar
    11    17    18   ar
    12    18    19   ar
    13    19    20   ar
    14     2     3   am
    15     3     4    1
    16     4     5    1
    17     5     6    1
    18     6     7    1
    19     7     8    1
    20     8    21    1
    21    21    22    1
    22    22    23   ar
    23    23    24   ar
    24    24    29    1
    25    29    30   ar
    26    30    31   ar
    27    31    32   ar
    28    32    33   ar
    29    33    34   ar
    30    24    25   ar
    31    25    26   ar
    32    26    27   ar
    33    27    28    1
    34    15     9   ar
    35    20    16   ar
    36     8     3    1
    37    27    22   ar
    38    34    29   ar
@<TRIPOS>MOLECULE
*****
 34 38 0 0 0
SMALL
GASTEIGER

@<TRIPOS>ATOM
      1 O          63.5069   87.5243   13.6074 O.2     1  UNL1       -0.2699
      2 C          62.9521   87.1201   12.2737 C.2     1  UNL1        0.2506
      3 N          62.2764   88.1374   11.4029 N.am    1  UNL1       -0.2723
      4 C          61.7216   87.7332   10.0692 C.3     1  UNL1        0.1257
      5 C          61.0459   88.7507    9.1984 C.3     1  UNL1        0.1637
      6 O          60.9249   90.1723    9.6613 O.3     1  UNL1       -0.3502
      7 C          61.4797   90.5765   10.9950 C.3     1  UNL1        0.1622
      8 C          62.1555   89.5591   11.8658 C.3     1  UNL1        0.1097
      9 C          63.0731   85.6984   11.8108 C.ar    1  UNL1        0.0730
     10 C          63.0999   85.3870   10.3437 C.ar    1  UNL1        0.0070
     11 C          63.2208   83.9654    9.8807 C.ar    1  UNL1        0.0116
     12 C          63.3149   82.8551   10.8849 C.ar    1  UNL1        0.0592
     13 CL         63.4359   81.4334   10.4220 Cl      1  UNL1       -0.0822
     14 C          63.2881   83.1665   12.3520 C.ar    1  UNL1        0.0324
     15 C          63.1672   84.5881   12.8149 C.ar    1  UNL1        0.1081
     16 N          63.1403   84.8994   14.2820 N.ar    1  UNL1       -0.1476
     17 N          64.3163   85.3096   15.1179 N.ar    1  UNL1       -0.1447
     18 C          63.8356   85.5189   16.5233 C.ar    1  UNL1        0.1446
     19 C          62.3625   85.2381   16.5560 C.ar    1  UNL1        0.1446
     20 N          61.9328   84.8552   15.1708 N.ar    1  UNL1       -0.1447
     21 C          62.7103   89.9634   13.1995 C.3     1  UNL1        0.0510
     22 C          64.0294   90.6729   13.2792 C.ar    1  UNL1        0.0071
     23 C          64.4999   91.5127   12.1289 C.ar    1  UNL1        0.0011
     24 C          65.8191   92.2223   12.2086 C.ar    1  UNL1        0.0356
     25 C          66.6677   92.0922   13.4386 C.ar    1  UNL1        0.0053
     26 C          66.1970   91.2524   14.5890 C.ar    1  UNL1        0.0294
     27 C          64.8779   90.5428   14.5093 C.ar    1  UNL1        0.1362
     28 F          64.4073   89.7030   15.6596 F       1  UNL1       -0.2045
     29 C          66.2897   93.0621   11.0582 C.ar    1  UNL1        0.1622
     30 N          67.3897   92.5653   10.1676 N.ar    1  UNL1       -0.2250
     31 C          67.8603   93.4050    9.0172 C.ar    1  UNL1        0.1022
     32 C          67.2309   94.7416    8.7575 C.ar    1  UNL1        0.0414
     33 C          66.1309   95.2384    9.6481 C.ar    1  UNL1        0.1022
     34 N          65.6603   94.3986   10.7985 N.ar    1  UNL1       -0.2250
@<TRIPOS>BOND
     1     1     2    2
     2     2     9    1
     3     9    10   ar
     4    10    11   ar
     5    11    12   ar
     6    12    13    1
     7    12    14   ar
     8    14    15   ar
     9    15    16    1
    10    16    17   ar
    11    17    18   ar
    12    18    19   ar
    13    19    20   ar
    14     2     3   am
    15     3     4    1
    16     4     5    1
    17     5     6    1
    18     6     7    1
    19     7     8    1
    20     8    21    1
    21    21    22    1
    22    22    23   ar
    23    23    24   ar
    24    24    29    1
    25    29    30   ar
    26    30    31   ar
    27    31    32   ar
    28    32    33   ar
    29    33    34   ar
    30    24    25   ar
    31    25    26   ar
    32    26    27   ar
    33    27    28    1
    34    15     9   ar
    35    20    16   ar
    36     8     3    1
    37    27    22   ar
    38    34    29   ar
@<TRIPOS>MOLECULE
*****
 34 38 0 0 0
SMALL
GASTEIGER

@<TRIPOS>ATOM
      1 O          63.2800   87.5050   12.8424 O.2     1  UNL1       -0.2699
      2 C          62.5883   86.7847   11.7231 C.2     1  UNL1        0.2506
      3 N          61.5592   87.4965   10.8960 N.am    1  UNL1       -0.2723
      4 C          60.8676   86.7762    9.7766 C.3     1  UNL1        0.1257
      5 C          59.8384   87.4881    8.9495 C.3     1  UNL1        0.1637
      6 O          59.5009   88.9201    9.2416 O.3     1  UNL1       -0.3502
      7 C          60.1925   89.6403   10.3609 C.3     1  UNL1        0.1622
      8 C          61.2217   88.9286   11.1881 C.3     1  UNL1        0.1097
      9 C          62.9259   85.3526   11.4310 C.ar    1  UNL1        0.0730
     10 C          63.0071   84.8759   10.0111 C.ar    1  UNL1        0.0070
     11 C          63.3446   83.4439    9.7189 C.ar    1  UNL1        0.0116
     12 C          63.6009   82.4887   10.8467 C.ar    1  UNL1        0.0592
     13 CL         63.9385   81.0566   10.5545 Cl      1  UNL1       -0.0822
     14 C          63.5197   82.9654   12.2666 C.ar    1  UNL1        0.0324
     15 C          63.1822   84.3974   12.5587 C.ar    1  UNL1        0.1081
     16 N          63.1010   84.8742   13.9786 N.ar    1  UNL1       -0.1476
     17 N          64.2004   85.5450   14.7477 N.ar    1  UNL1       -0.1447
     18 C          63.6850   85.8493   16.1231 C.ar    1  UNL1        0.1446
     19 C          62.2671   85.3666   16.2041 C.ar    1  UNL1        0.1446
     20 N          61.9062   84.7640   14.8788 N.ar    1  UNL1       -0.1447
     21 C          61.9133   89.6488   12.3074 C.3     1  UNL1        0.0510
     22 C          63.0679   90.5599   12.0128 C.ar    1  UNL1        0.0071
     23 C          64.0797   90.8573   13.0794 C.ar    1  UNL1        0.0011
     24 C          65.2343   91.7684   12.7849 C.ar    1  UNL1        0.0356
     25 C          65.3771   92.3822   11.4236 C.ar    1  UNL1        0.0053
     26 C          64.3652   92.0848   10.3570 C.ar    1  UNL1        0.0294
     27 C          63.2106   91.1737   10.6516 C.ar    1  UNL1        0.1362
     28 F          62.1988   90.8763    9.5850 F       1  UNL1       -0.2045
     29 C          66.2462   92.0658   13.8515 C.ar    1  UNL1        0.1622
     30 N          65.7982   92.5768   15.1887 N.ar    1  UNL1       -0.2250
     31 C          66.8100   92.8741   16.2553 C.ar    1  UNL1        0.1022
     32 C          68.2699   92.6605   15.9848 C.ar    1  UNL1        0.0414
     33 C          68.7179   92.1495   14.6475 C.ar    1  UNL1        0.1022
     34 N          67.7060   91.8521   13.5809 N.ar    1  UNL1       -0.2250
@<TRIPOS>BOND
     1     1     2    2
     2     2     9    1
     3     9    10   ar
     4    10    11   ar
     5    11    12   ar
     6    12    13    1
     7    12    14   ar
     8    14    15   ar
     9    15    16    1
    10    16    17   ar
    11    17    18   ar
    12    18    19   ar
    13    19    20   ar
    14     2     3   am
    15     3     4    1
    16     4     5    1
    17     5     6    1
    18     6     7    1
    19     7     8    1
    20     8    21    1
    21    21    22    1
    22    22    23   ar
    23    23    24   ar
    24    24    29    1
    25    29    30   ar
    26    30    31   ar
    27    31    32   ar
    28    32    33   ar
    29    33    34   ar
    30    24    25   ar
    31    25    26   ar
    32    26    27   ar
    33    27    28    1
    34    15     9   ar
    35    20    16   ar
    36     8     3    1
    37    27    22   ar
    38    34    29   ar
@<TRIPOS>MOLECULE
*****
 34 38 0 0 0
SMALL
GASTEIGER

@<TRIPOS>ATOM
      1 O          63.5862   88.6486   12.3855 O.2     1  UNL1       -0.2699
      2 C          63.5123   87.5404   13.3937 C.2     1  UNL1        0.2506
      3 N          63.3960   87.8617   14.8542 N.am    1  UNL1       -0.2723
      4 C          63.3222   86.7535   15.8624 C.3     1  UNL1        0.1257
      5 C          63.2059   87.0748   17.3230 C.3     1  UNL1        0.1637
      6 O          63.1635   88.5043   17.7754 O.3     1  UNL1       -0.3502
      7 C          63.2373   89.6125   16.7672 C.3     1  UNL1        0.1622
      8 C          63.3536   89.2912   15.3067 C.3     1  UNL1        0.1097
      9 C          63.5548   86.1108   12.9412 C.ar    1  UNL1        0.0730
     10 C          64.4124   85.1189   13.6695 C.ar    1  UNL1        0.0070
     11 C          64.4549   83.6894   13.2171 C.ar    1  UNL1        0.0116
     12 C          63.6397   83.2518   12.0365 C.ar    1  UNL1        0.0592
     13 CL         63.6821   81.8223   11.5841 Cl      1  UNL1       -0.0822
     14 C          62.7820   84.2438   11.3082 C.ar    1  UNL1        0.0324
     15 C          62.7396   85.6733   11.7606 C.ar    1  UNL1        0.1081
     16 N          61.8819   86.6653   11.0323 N.ar    1  UNL1       -0.1476
     17 N          62.1341   87.2063    9.6562 N.ar    1  UNL1       -0.1447
     18 C          61.0295   88.1658    9.3257 C.ar    1  UNL1        0.1446
     19 C          60.0946   88.2178   10.4976 C.ar    1  UNL1        0.1446
     20 N          60.6214   87.2905   11.5523 N.ar    1  UNL1       -0.1447
     21 C          63.4275   90.3995   14.2985 C.3     1  UNL1        0.0510
     22 C          64.6269   91.2993   14.2596 C.ar    1  UNL1        0.0071
     23 C          65.2577   91.6517   12.9452 C.ar    1  UNL1        0.0011
     24 C          66.4573   92.5516   12.9062 C.ar    1  UNL1        0.0356
     25 C          67.0259   93.0990   14.1818 C.ar    1  UNL1        0.0053
     26 C          66.3950   92.7465   15.4962 C.ar    1  UNL1        0.0294
     27 C          65.1956   91.8467   15.5351 C.ar    1  UNL1        0.1362
     28 F          64.5647   91.4942   16.8496 F       1  UNL1       -0.2045
     29 C          67.0881   92.9040   11.5918 C.ar    1  UNL1        0.1622
     30 N          68.0701   91.9655   10.9555 N.ar    1  UNL1       -0.2250
     31 C          68.7009   92.3179    9.6411 C.ar    1  UNL1        0.1022
     32 C          68.3497   93.6090    8.9628 C.ar    1  UNL1        0.0414
     33 C          67.3678   94.5475    9.5991 C.ar    1  UNL1        0.1022
     34 N          66.7369   94.1950   10.9136 N.ar    1  UNL1       -0.2250
@<TRIPOS>BOND
     1     1     2    2
     2     2     9    1
     3     9    10   ar
     4    10    11   ar
     5    11    12   ar
     6    12    13    1
     7    12    14   ar
     8    14    15   ar
     9    15    16    1
    10    16    17   ar
    11    17    18   ar
    12    18    19   ar
    13    19    20   ar
    14     2     3   am
    15     3     4    1
    16     4     5    1
    17     5     6    1
    18     6     7    1
    19     7     8    1
    20     8    21    1
    21    21    22    1
    22    22    23   ar
    23    23    24   ar
    24    24    29    1
    25    29    30   ar
    26    30    31   ar
    27    31    32   ar
    28    32    33   ar
    29    33    34   ar
    30    24    25   ar
    31    25    26   ar
    32    26    27   ar
    33    27    28    1
    34    15     9   ar
    35    20    16   ar
    36     8     3    1
    37    27    22   ar
    38    34    29   ar
@<TRIPOS>MOLECULE
*****
 34 38 0 0 0
SMALL
GASTEIGER

@<TRIPOS>ATOM
      1 O          62.4507   90.1864   11.6730 O.2     1  UNL1       -0.2699
      2 C          62.6150   88.6955   11.6815 C.2     1  UNL1        0.2506
      3 N          63.3325   88.0264   12.8161 N.am    1  UNL1       -0.2723
      4 C          63.4968   86.5354   12.8245 C.3     1  UNL1        0.1257
      5 C          64.2144   85.8664   13.9593 C.3     1  UNL1        0.1637
      6 O          64.7676   86.6882   15.0855 O.3     1  UNL1       -0.3502
      7 C          64.6033   88.1792   15.0771 C.3     1  UNL1        0.1622
      8 C          63.8858   88.8483   13.9424 C.3     1  UNL1        0.1097
      9 C          62.0618   87.8736   10.5551 C.ar    1  UNL1        0.0730
     10 C          62.9496   86.9125    9.8215 C.ar    1  UNL1        0.0070
     11 C          62.3964   86.0907    8.6953 C.ar    1  UNL1        0.0116
     12 C          60.9555   86.2299    8.3026 C.ar    1  UNL1        0.0592
     13 CL         60.4022   85.4080    7.1763 Cl      1  UNL1       -0.0822
     14 C          60.0677   87.1909    9.0362 C.ar    1  UNL1        0.0324
     15 C          60.6208   88.0128   10.1625 C.ar    1  UNL1        0.1081
     16 N          59.7330   88.9738   10.8961 N.ar    1  UNL1       -0.1476
     17 N          59.5060   90.4129   10.5389 N.ar    1  UNL1       -0.1447
     18 C          58.5490   90.9930   11.5377 C.ar    1  UNL1        0.1446
     19 C          58.1847   89.9125   12.5123 C.ar    1  UNL1        0.1446
     20 N          58.9164   88.6646   12.1157 N.ar    1  UNL1       -0.1447
     21 C          63.7214   90.3392   13.9340 C.3     1  UNL1        0.0510
     22 C          64.9300   91.2267   13.8952 C.ar    1  UNL1        0.0071
     23 C          65.5041   91.6548   12.5773 C.ar    1  UNL1        0.0011
     24 C          66.7128   92.5424   12.5384 C.ar    1  UNL1        0.0356
     25 C          67.3473   93.0018   13.8176 C.ar    1  UNL1        0.0053
     26 C          66.7731   92.5737   15.1356 C.ar    1  UNL1        0.0294
     27 C          65.5645   91.6862   15.1744 C.ar    1  UNL1        0.1362
     28 F          64.9904   91.2581   16.4924 F       1  UNL1       -0.2045
     29 C          67.2869   92.9705   11.2204 C.ar    1  UNL1        0.1622
     30 N          66.9547   94.3220   10.6611 N.ar    1  UNL1       -0.2250
     31 C          67.5288   94.7501    9.3431 C.ar    1  UNL1        0.1022
     32 C          68.4352   93.8266    8.5844 C.ar    1  UNL1        0.0414
     33 C          68.7674   92.4750    9.1437 C.ar    1  UNL1        0.1022
     34 N          68.1933   92.0469   10.4618 N.ar    1  UNL1       -0.2250
@<TRIPOS>BOND
     1     1     2    2
     2     2     9    1
     3     9    10   ar
     4    10    11   ar
     5    11    12   ar
     6    12    13    1
     7    12    14   ar
     8    14    15   ar
     9    15    16    1
    10    16    17   ar
    11    17    18   ar
    12    18    19   ar
    13    19    20   ar
    14     2     3   am
    15     3     4    1
    16     4     5    1
    17     5     6    1
    18     6     7    1
    19     7     8    1
    20     8    21    1
    21    21    22    1
    22    22    23   ar
    23    23    24   ar
    24    24    29    1
    25    29    30   ar
    26    30    31   ar
    27    31    32   ar
    28    32    33   ar
    29    33    34   ar
    30    24    25   ar
    31    25    26   ar
    32    26    27   ar
    33    27    28    1
    34    15     9   ar
    35    20    16   ar
    36     8     3    1
    37    27    22   ar
    38    34    29   ar
@<TRIPOS>MOLECULE
*****
 34 38 0 0 0
SMALL
GASTEIGER

@<TRIPOS>ATOM
      1 O          63.3790   88.0151   11.7914 O.2     1  UNL1       -0.2699
      2 C          63.4245   87.3679   13.1439 C.2     1  UNL1        0.2506
      3 N          63.3387   88.2106   14.3818 N.am    1  UNL1       -0.2723
      4 C          63.3843   87.5634   15.7342 C.3     1  UNL1        0.1257
      5 C          63.2985   88.4062   16.9722 C.3     1  UNL1        0.1637
      6 O          63.1672   89.8960   16.8577 O.3     1  UNL1       -0.3502
      7 C          63.1217   90.5431   15.5052 C.3     1  UNL1        0.1622
      8 C          63.2075   89.7005   14.2673 C.3     1  UNL1        0.1097
      9 C          63.5558   85.8780   13.2583 C.ar    1  UNL1        0.0730
     10 C          64.3125   85.2778   14.4060 C.ar    1  UNL1        0.0070
     11 C          64.4438   83.7880   14.5205 C.ar    1  UNL1        0.0116
     12 C          63.8184   82.8984   13.4874 C.ar    1  UNL1        0.0592
     13 CL         63.9497   81.4085   13.6018 Cl      1  UNL1       -0.0822
     14 C          63.0617   83.4986   12.3397 C.ar    1  UNL1        0.0324
     15 C          62.9304   84.9884   12.2252 C.ar    1  UNL1        0.1081
     16 N          62.1738   85.5887   11.0775 N.ar    1  UNL1       -0.1476
     17 N          60.9248   86.4131   11.1797 N.ar    1  UNL1       -0.1447
     18 C          60.5123   86.8038    9.7915 C.ar    1  UNL1        0.1446
     19 C          61.5064   86.2209    8.8312 C.ar    1  UNL1        0.1446
     20 N          62.5332   85.4699    9.6260 N.ar    1  UNL1       -0.1447
     21 C          63.1620   90.3476   12.9149 C.3     1  UNL1        0.0510
     22 C          64.2673   91.2662   12.4854 C.ar    1  UNL1        0.0071
     23 C          65.3754   91.6030   13.4385 C.ar    1  UNL1        0.0011
     24 C          66.4808   92.5216   13.0090 C.ar    1  UNL1        0.0356
     25 C          66.4780   93.1034   11.6264 C.ar    1  UNL1        0.0053
     26 C          65.3697   92.7665   10.6733 C.ar    1  UNL1        0.0294
     27 C          64.2644   91.8480   11.1028 C.ar    1  UNL1        0.1362
     28 F          63.1562   91.5112   10.1497 F       1  UNL1       -0.2045
     29 C          67.5890   92.8584   13.9621 C.ar    1  UNL1        0.1622
     30 N          67.3411   93.8108   15.0942 N.ar    1  UNL1       -0.2250
     31 C          68.4493   94.1476   16.0473 C.ar    1  UNL1        0.1022
     32 C          69.8055   93.5320   15.8684 C.ar    1  UNL1        0.0414
     33 C          70.0534   92.5797   14.7363 C.ar    1  UNL1        0.1022
     34 N          68.9451   92.2429   13.7832 N.ar    1  UNL1       -0.2250
@<TRIPOS>BOND
     1     1     2    2
     2     2     9    1
     3     9    10   ar
     4    10    11   ar
     5    11    12   ar
     6    12    13    1
     7    12    14   ar
     8    14    15   ar
     9    15    16    1
    10    16    17   ar
    11    17    18   ar
    12    18    19   ar
    13    19    20   ar
    14     2     3   am
    15     3     4    1
    16     4     5    1
    17     5     6    1
    18     6     7    1
    19     7     8    1
    20     8    21    1
    21    21    22    1
    22    22    23   ar
    23    23    24   ar
    24    24    29    1
    25    29    30   ar
    26    30    31   ar
    27    31    32   ar
    28    32    33   ar
    29    33    34   ar
    30    24    25   ar
    31    25    26   ar
    32    26    27   ar
    33    27    28    1
    34    15     9   ar
    35    20    16   ar
    36     8     3    1
    37    27    22   ar
    38    34    29   ar
@<TRIPOS>MOLECULE
*****
 34 38 0 0 0
SMALL
GASTEIGER

@<TRIPOS>ATOM
      1 O          64.9829   91.5161   12.0037 O.2     1  UNL1       -0.2699
      2 C          65.0348   91.4867   13.5025 C.2     1  UNL1        0.2506
      3 N          63.9578   90.7861   14.2766 N.am    1  UNL1       -0.2723
      4 C          64.0097   90.7567   15.7754 C.3     1  UNL1        0.1257
      5 C          62.9327   90.0560   16.5495 C.3     1  UNL1        0.1637
      6 O          61.8039   89.3848   15.8248 O.3     1  UNL1       -0.3502
      7 C          61.7520   89.4142   14.3260 C.3     1  UNL1        0.1622
      8 C          62.8290   90.1148   13.5519 C.3     1  UNL1        0.1097
      9 C          66.1637   92.1579   14.2272 C.ar    1  UNL1        0.0730
     10 C          66.4567   91.8004   15.6542 C.ar    1  UNL1        0.0070
     11 C          67.5855   92.4716   16.3789 C.ar    1  UNL1        0.0116
     12 C          68.4213   93.5003   15.6766 C.ar    1  UNL1        0.0592
     13 CL         69.5502   94.1716   16.4013 Cl      1  UNL1       -0.0822
     14 C          68.1282   93.8578   14.2496 C.ar    1  UNL1        0.0324
     15 C          66.9994   93.1866   13.5249 C.ar    1  UNL1        0.1081
     16 N          66.7063   93.5441   12.0979 N.ar    1  UNL1       -0.1476
     17 N          67.3470   92.9339   10.8866 N.ar    1  UNL1       -0.1447
     18 C          66.7578   93.5873    9.6717 C.ar    1  UNL1        0.1446
     19 C          65.7529   94.6013   10.1322 C.ar    1  UNL1        0.1446
     20 N          65.7212   94.5747   11.6316 N.ar    1  UNL1       -0.1447
     21 C          62.7771   90.1442   12.0531 C.3     1  UNL1        0.0510
     22 C          62.1814   88.9915   11.3005 C.ar    1  UNL1        0.0071
     23 C          62.7275   87.6078   11.4928 C.ar    1  UNL1        0.0011
     24 C          62.1318   86.4551   10.7402 C.ar    1  UNL1        0.0356
     25 C          60.9900   86.6861    9.7953 C.ar    1  UNL1        0.0053
     26 C          60.4439   88.0699    9.6030 C.ar    1  UNL1        0.0294
     27 C          61.0396   89.2226   10.3556 C.ar    1  UNL1        0.1362
     28 F          60.4935   90.6063   10.1632 F       1  UNL1       -0.2045
     29 C          62.6779   85.0713   10.9325 C.ar    1  UNL1        0.1622
     30 N          62.4477   84.3472   12.2258 N.ar    1  UNL1       -0.2250
     31 C          62.9938   82.9635   12.4181 C.ar    1  UNL1        0.1022
     32 C          63.7702   82.3038   11.3171 C.ar    1  UNL1        0.0414
     33 C          64.0004   83.0280   10.0238 C.ar    1  UNL1        0.1022
     34 N          63.4542   84.4118    9.8315 N.ar    1  UNL1       -0.2250
@<TRIPOS>BOND
     1     1     2    2
     2     2     9    1
     3     9    10   ar
     4    10    11   ar
     5    11    12   ar
     6    12    13    1
     7    12    14   ar
     8    14    15   ar
     9    15    16    1
    10    16    17   ar
    11    17    18   ar
    12    18    19   ar
    13    19    20   ar
    14     2     3   am
    15     3     4    1
    16     4     5    1
    17     5     6    1
    18     6     7    1
    19     7     8    1
    20     8    21    1
    21    21    22    1
    22    22    23   ar
    23    23    24   ar
    24    24    29    1
    25    29    30   ar
    26    30    31   ar
    27    31    32   ar
    28    32    33   ar
    29    33    34   ar
    30    24    25   ar
    31    25    26   ar
    32    26    27   ar
    33    27    28    1
    34    15     9   ar
    35    20    16   ar
    36     8     3    1
    37    27    22   ar
    38    34    29   ar
