@<TRIPOS>MOLECULE
*****
 40 45 0 0 0
SMALL
GASTEIGER

@<TRIPOS>ATOM
      1 C          59.7697   90.2037    6.0952 C.2     1  UNL1        0.2495
      2 O          58.3927   90.4633    5.5598 O.2     1  UNL1       -0.2698
      3 N          60.9633   90.8141    5.4224 N.am    1  UNL1       -0.2804
      4 H          61.8671   90.6437    5.7737 H       1  UNL1        0.1552
      5 C          60.5030   86.7241   10.9278 C.3     1  UNL1        0.0317
      6 C          60.3197   87.5940    9.7197 C.ar    1  UNL1       -0.0142
      7 C          59.4902   87.1113    8.5668 C.ar    1  UNL1       -0.0035
      8 C          59.3069   87.9812    7.3587 C.ar    1  UNL1        0.0042
      9 C          59.9530   89.3338    7.3033 C.ar    1  UNL1        0.0543
     10 C          60.7824   89.8164    8.4561 C.ar    1  UNL1        0.0124
     11 C          60.9658   88.9466    9.6644 C.ar    1  UNL1        0.0382
     12 C          61.7953   89.4292   10.8172 C.1     1  UNL1       -0.0585
     13 C          62.6247   89.9119   11.9700 C.1     1  UNL1       -0.0388
     14 C          63.4542   90.3945   13.1229 C.ar    1  UNL1        0.1451
     15 C          63.3887   89.8828   14.5314 C.ar    1  UNL1        0.1281
     16 N          64.3888   90.6456   15.3487 N.ar    1  UNL1       -0.2228
     17 C          65.0723   91.6287   14.4453 C.ar    1  UNL1        0.1646
     18 C          66.1461   92.6453   14.6975 C.ar    1  UNL1        0.0405
     19 C          66.6423   93.5066   13.5741 C.ar    1  UNL1        0.0256
     20 C          66.0647   93.3514   12.1985 C.ar    1  UNL1        0.1207
     21 N          64.9909   92.3349   11.9463 N.ar    1  UNL1       -0.1616
     22 N          64.4947   91.4735   13.0696 N.ar    1  UNL1       -0.2030
     23 C          60.7800   91.6840    4.2142 C.ar    1  UNL1        0.0514
     24 C          59.4580   92.3452    3.9598 C.ar    1  UNL1        0.0145
     25 C          59.2747   93.2152    2.7516 C.ar    1  UNL1       -0.0008
     26 C          60.4135   93.4239    1.7979 C.ar    1  UNL1        0.0045
     27 C          61.7356   92.7626    2.0524 C.ar    1  UNL1        0.0562
     28 CL         62.8744   92.9713    1.0987 Cl      1  UNL1       -0.0825
     29 C          61.9189   91.8927    3.2606 C.ar    1  UNL1        0.0258
     30 C          60.2302   94.2938    0.5897 C.3     1  UNL1        0.1000
     31 N          59.5751   93.7400   -0.6408 N.3     1  UNL1       -0.2675
     32 C          60.1947   93.9680   -1.9876 C.3     1  UNL1        0.0729
     33 C          59.5397   93.4142   -3.2181 C.3     1  UNL1        0.0251
     34 C          58.2649   92.6322   -3.1017 C.3     1  UNL1        0.0652
     35 C          57.3968   91.9692   -4.1297 C.2     1  UNL1        0.0921
     36 N          56.2406   91.3313   -3.4181 N.2     1  UNL1       -0.1886
     37 N          56.3941   91.6001   -1.9504 N.pl3   1  UNL1       -0.2575
     38 C          57.6453   92.4041   -1.7549 C.3     1  UNL1        0.1088
     39 C          58.3004   92.9580   -0.5244 C.3     1  UNL1        0.0940
     40 H          55.7814   91.3013   -1.2402 H       1  UNL1        0.1687
@<TRIPOS>BOND
     1     5     6    1
     2     6     7   ar
     3     7     8   ar
     4     8     9   ar
     5     9     1    1
     6     1     2    2
     7     1     3   am
     8     3    23    1
     9    23    24   ar
    10    24    25   ar
    11    25    26   ar
    12    26    30    1
    13    30    31    1
    14    31    32    1
    15    32    33    1
    16    33    34    1
    17    34    35    1
    18    35    36    2
    19    36    37    1
    20    37    38    1
    21    38    39    1
    22    26    27   ar
    23    27    28    1
    24    27    29   ar
    25     9    10   ar
    26    10    11   ar
    27    11    12    1
    28    12    13    3
    29    13    14    1
    30    14    15   ar
    31    15    16   ar
    32    16    17   ar
    33    17    18   ar
    34    18    19   ar
    35    19    20   ar
    36    20    21   ar
    37    21    22   ar
    38    11     6   ar
    39    22    14   ar
    40    29    23   ar
    41    22    17   ar
    42    39    31    1
    43    38    34    1
    44     3     4    1
    45    37    40    1
@<TRIPOS>MOLECULE
*****
 40 45 0 0 0
SMALL
GASTEIGER

@<TRIPOS>ATOM
      1 C          59.7969   90.8195    5.4242 C.2     1  UNL1        0.2495
      2 O          58.4809   91.3776    4.9698 O.2     1  UNL1       -0.2698
      3 N          61.0572   91.1826    4.6963 N.am    1  UNL1       -0.2804
      4 H          61.9209   90.8163    4.9946 H       1  UNL1        0.1552
      5 C          60.0200   87.1341   10.1538 C.3     1  UNL1        0.0317
      6 C          59.9642   88.0554    8.9714 C.ar    1  UNL1       -0.0142
      7 C          59.0866   87.7220    7.8015 C.ar    1  UNL1       -0.0035
      8 C          59.0308   88.6433    6.6192 C.ar    1  UNL1        0.0042
      9 C          59.8527   89.8981    6.6066 C.ar    1  UNL1        0.0543
     10 C          60.7303   90.2315    7.7765 C.ar    1  UNL1        0.0124
     11 C          60.7861   89.3102    8.9589 C.ar    1  UNL1        0.0382
     12 C          61.6637   89.6436   10.1288 C.1     1  UNL1       -0.0585
     13 C          62.5413   89.9770   11.2987 C.1     1  UNL1       -0.0388
     14 C          63.4190   90.3104   12.4686 C.ar    1  UNL1        0.1451
     15 C          63.4391   89.5961   13.7875 C.ar    1  UNL1        0.1281
     16 N          64.4631   90.2608   14.6590 N.ar    1  UNL1       -0.2228
     17 C          65.0758   91.3858   13.8788 C.ar    1  UNL1        0.1646
     18 C          66.1380   92.3864   14.2261 C.ar    1  UNL1        0.0405
     19 C          66.5548   93.4176   13.2196 C.ar    1  UNL1        0.0256
     20 C          65.9095   93.4482   11.8659 C.ar    1  UNL1        0.1207
     21 N          64.8473   92.4476   11.5185 N.ar    1  UNL1       -0.1616
     22 N          64.4304   91.4165   12.5249 N.ar    1  UNL1       -0.2030
     23 C          61.0015   92.1040    3.5140 C.ar    1  UNL1        0.0514
     24 C          59.6775   92.4791    2.9173 C.ar    1  UNL1        0.0145
     25 C          59.6217   93.4006    1.7348 C.ar    1  UNL1       -0.0008
     26 C          60.8901   93.9468    1.1492 C.ar    1  UNL1        0.0045
     27 C          62.2142   93.5715    1.7460 C.ar    1  UNL1        0.0562
     28 CL         63.4825   94.1177    1.1604 Cl      1  UNL1       -0.0825
     29 C          62.2699   92.6502    2.9284 C.ar    1  UNL1        0.0258
     30 C          60.8343   94.8681   -0.0331 C.3     1  UNL1        0.1000
     31 N          61.8415   94.7339   -1.1367 N.3     1  UNL1       -0.2675
     32 C          62.6002   95.9380   -1.6102 C.3     1  UNL1        0.0729
     33 C          63.6074   95.8038   -2.7137 C.3     1  UNL1        0.0251
     34 C          63.8558   94.4653   -3.3436 C.3     1  UNL1        0.0652
     35 C          64.7796   94.0287   -4.4417 C.2     1  UNL1        0.0921
     36 N          64.5919   92.5548   -4.6468 N.2     1  UNL1       -0.1886
     37 N          63.5520   92.0803   -3.6755 N.pl3   1  UNL1       -0.2575
     38 C          63.0970   93.2611   -2.8700 C.3     1  UNL1        0.1088
     39 C          62.0899   93.3954   -1.7665 C.3     1  UNL1        0.0940
     40 H          63.2254   91.1562   -3.5829 H       1  UNL1        0.1687
@<TRIPOS>BOND
     1     5     6    1
     2     6     7   ar
     3     7     8   ar
     4     8     9   ar
     5     9     1    1
     6     1     2    2
     7     1     3   am
     8     3    23    1
     9    23    24   ar
    10    24    25   ar
    11    25    26   ar
    12    26    30    1
    13    30    31    1
    14    31    32    1
    15    32    33    1
    16    33    34    1
    17    34    35    1
    18    35    36    2
    19    36    37    1
    20    37    38    1
    21    38    39    1
    22    26    27   ar
    23    27    28    1
    24    27    29   ar
    25     9    10   ar
    26    10    11   ar
    27    11    12    1
    28    12    13    3
    29    13    14    1
    30    14    15   ar
    31    15    16   ar
    32    16    17   ar
    33    17    18   ar
    34    18    19   ar
    35    19    20   ar
    36    20    21   ar
    37    21    22   ar
    38    11     6   ar
    39    22    14   ar
    40    29    23   ar
    41    22    17   ar
    42    39    31    1
    43    38    34    1
    44     3     4    1
    45    37    40    1
