@<TRIPOS>MOLECULE
*****
 23 25 0 0 0
SMALL
GASTEIGER

@<TRIPOS>ATOM
      1 C          61.3888   88.0785   10.9597 C.ar    1  UNL1       -0.0144
      2 C          62.2254   86.8723   11.2680 C.ar    1  UNL1        0.0051
      3 S          62.0695   85.8988   10.1375 S.2     1  UNL1       -0.0915
      4 C          61.1366   86.5034    9.1305 C.ar    1  UNL1        0.0288
      5 C          60.6158   86.0013    7.8165 C.ar    1  UNL1        0.0065
      6 C          59.6743   86.8463    7.0106 C.ar    1  UNL1        0.0005
      7 C          59.2536   88.1935    7.5188 C.ar    1  UNL1        0.0000
      8 C          59.7744   88.6956    8.8328 C.ar    1  UNL1        0.0002
      9 C          60.7159   87.8505    9.6386 C.ar    1  UNL1        0.0025
     10 C          61.2496   89.2985   11.8212 C.3     1  UNL1        0.0624
     11 C          59.8881   89.8479   12.1290 C.3     1  UNL1        0.0110
     12 C          62.9103   91.0764   10.0658 C.3     1  UNL1        0.0323
     13 C          63.3020   90.8581   11.4972 C.ar    1  UNL1       -0.0079
     14 C          64.5241   91.5288   12.0509 C.ar    1  UNL1       -0.0015
     15 C          64.9159   91.3107   13.4823 C.ar    1  UNL1        0.0203
     16 C          64.0855   90.4218   14.3600 C.ar    1  UNL1        0.0984
     17 N          62.8634   89.7511   13.8063 N.ar    1  UNL1       -0.2482
     18 C          62.4716   89.9692   12.3748 C.ar    1  UNL1        0.0587
     19 C          63.0697   86.6743   12.4920 C.3     1  UNL1        0.0499
     20 C          63.2522   85.2992   13.0628 C.3     1  UNL1        0.0774
     21 N          63.3230   85.1073   14.5488 N.3     1  UNL1       -0.2700
     22 C          64.1669   86.0240   15.3841 C.3     1  UNL1        0.0897
     23 C          62.5498   83.9989   15.1995 C.3     1  UNL1        0.0897
@<TRIPOS>BOND
     1    12    13    1
     2    13    14   ar
     3    14    15   ar
     4    15    16   ar
     5    16    17   ar
     6    17    18   ar
     7    18    10    1
     8    10    11    1
     9    10     1    1
    10     1     2   ar
    11     2    19    1
    12    19    20    1
    13    20    21    1
    14    21    22    1
    15    21    23    1
    16     2     3   ar
    17     3     4   ar
    18     4     5   ar
    19     5     6   ar
    20     6     7   ar
    21     7     8   ar
    22     8     9   ar
    23    18    13   ar
    24     9     1   ar
    25     9     4   ar
@<TRIPOS>MOLECULE
*****
 23 25 0 0 0
SMALL
GASTEIGER

@<TRIPOS>ATOM
      1 C          63.6042   85.5177   13.1355 C.ar    1  UNL1       -0.0144
      2 C          63.2594   84.0882   12.8394 C.ar    1  UNL1        0.0051
      3 S          62.3969   84.0641   11.6124 S.2     1  UNL1       -0.0915
      4 C          62.2087   85.4787   11.1502 C.ar    1  UNL1        0.0288
      5 C          61.4543   86.0647    9.9938 C.ar    1  UNL1        0.0065
      6 C          61.4460   87.5492    9.7787 C.ar    1  UNL1        0.0005
      7 C          62.1922   88.4476   10.7201 C.ar    1  UNL1        0.0000
      8 C          62.9466   87.8615   11.8765 C.ar    1  UNL1        0.0002
      9 C          62.9548   86.3770   12.0915 C.ar    1  UNL1        0.0025
     10 C          64.4499   86.0027   14.2755 C.3     1  UNL1        0.0624
     11 C          65.7199   85.2851   14.6255 C.3     1  UNL1        0.0110
     12 C          63.0515   85.6523   16.9064 C.3     1  UNL1        0.0323
     13 C          63.3267   87.0300   16.3809 C.ar    1  UNL1       -0.0079
     14 C          62.9026   88.2326   17.1708 C.ar    1  UNL1       -0.0015
     15 C          63.1777   89.6103   16.6453 C.ar    1  UNL1        0.0203
     16 C          63.8769   89.7855   15.3298 C.ar    1  UNL1        0.0984
     17 N          64.3010   88.5829   14.5399 N.ar    1  UNL1       -0.2482
     18 C          64.0259   87.2051   15.0654 C.ar    1  UNL1        0.0587
     19 C          63.6997   82.8927   13.6312 C.3     1  UNL1        0.0499
     20 C          62.6972   82.1072   14.4236 C.3     1  UNL1        0.0774
     21 N          61.9436   80.9835   13.7760 N.3     1  UNL1       -0.2700
     22 C          62.6166   80.1241   12.7470 C.3     1  UNL1        0.0897
     23 C          60.5173   80.7190   14.1573 C.3     1  UNL1        0.0897
@<TRIPOS>BOND
     1    12    13    1
     2    13    14   ar
     3    14    15   ar
     4    15    16   ar
     5    16    17   ar
     6    17    18   ar
     7    18    10    1
     8    10    11    1
     9    10     1    1
    10     1     2   ar
    11     2    19    1
    12    19    20    1
    13    20    21    1
    14    21    22    1
    15    21    23    1
    16     2     3   ar
    17     3     4   ar
    18     4     5   ar
    19     5     6   ar
    20     6     7   ar
    21     7     8   ar
    22     8     9   ar
    23    18    13   ar
    24     9     1   ar
    25     9     4   ar
@<TRIPOS>MOLECULE
*****
 23 25 0 0 0
SMALL
GASTEIGER

@<TRIPOS>ATOM
      1 C          63.3485   85.9192   12.8212 C.ar    1  UNL1       -0.0144
      2 C          63.8891   85.1976   14.0200 C.ar    1  UNL1        0.0051
      3 S          64.4161   86.2232   14.9795 S.2     1  UNL1       -0.0915
      4 C          64.2011   87.5785   14.3737 C.ar    1  UNL1        0.0288
      5 C          64.5209   88.9593   14.8644 C.ar    1  UNL1        0.0065
      6 C          64.1809   90.1523   14.0211 C.ar    1  UNL1        0.0005
      7 C          63.5211   89.9645   12.6872 C.ar    1  UNL1        0.0000
      8 C          63.2013   88.5836   12.1965 C.ar    1  UNL1        0.0002
      9 C          63.5413   87.3906   13.0398 C.ar    1  UNL1        0.0025
     10 C          62.7245   85.2813   11.6155 C.3     1  UNL1        0.0624
     11 C          62.9993   83.8401   11.3027 C.3     1  UNL1        0.0110
     12 C          63.0981   85.1926    8.6401 C.3     1  UNL1        0.0323
     13 C          62.0127   86.0401    9.2348 C.ar    1  UNL1       -0.0079
     14 C          61.1141   86.8432    8.3419 C.ar    1  UNL1       -0.0015
     15 C          60.0286   87.6906    8.9365 C.ar    1  UNL1        0.0203
     16 C          59.8418   87.7350   10.4242 C.ar    1  UNL1        0.0984
     17 N          60.7405   86.9318   11.3171 N.ar    1  UNL1       -0.2482
     18 C          61.8260   86.0843   10.7225 C.ar    1  UNL1        0.0587
     19 C          63.9007   83.7116   14.2236 C.3     1  UNL1        0.0499
     20 C          62.6496   83.0033   14.6511 C.3     1  UNL1        0.0774
     21 N          62.3795   81.6060   14.1772 N.3     1  UNL1       -0.2700
     22 C          63.5068   80.7533   13.6748 C.3     1  UNL1        0.0897
     23 C          60.9822   81.0613   14.2057 C.3     1  UNL1        0.0897
@<TRIPOS>BOND
     1    12    13    1
     2    13    14   ar
     3    14    15   ar
     4    15    16   ar
     5    16    17   ar
     6    17    18   ar
     7    18    10    1
     8    10    11    1
     9    10     1    1
    10     1     2   ar
    11     2    19    1
    12    19    20    1
    13    20    21    1
    14    21    22    1
    15    21    23    1
    16     2     3   ar
    17     3     4   ar
    18     4     5   ar
    19     5     6   ar
    20     6     7   ar
    21     7     8   ar
    22     8     9   ar
    23    18    13   ar
    24     9     1   ar
    25     9     4   ar
@<TRIPOS>MOLECULE
*****
 23 25 0 0 0
SMALL
GASTEIGER

@<TRIPOS>ATOM
      1 C          63.4011   90.0797   12.8327 C.ar    1  UNL1       -0.0144
      2 C          64.0144   89.7772   14.1678 C.ar    1  UNL1        0.0051
      3 S          65.2197   90.6546   14.3336 S.2     1  UNL1       -0.0915
      4 C          65.3513   91.4994   13.1011 C.ar    1  UNL1        0.0288
      5 C          66.3493   92.5462   12.7036 C.ar    1  UNL1        0.0065
      6 C          66.2234   93.2376   11.3785 C.ar    1  UNL1        0.0005
      7 C          65.0994   92.8823   10.4508 C.ar    1  UNL1        0.0000
      8 C          64.1014   91.8355   10.8483 C.ar    1  UNL1        0.0002
      9 C          64.2273   91.1440   12.1735 C.ar    1  UNL1        0.0025
     10 C          62.1766   89.4316   12.2578 C.3     1  UNL1        0.0624
     11 C          60.8335   90.0755   12.4359 C.3     1  UNL1        0.0110
     12 C          61.6109   89.3546    9.3126 C.3     1  UNL1        0.0323
     13 C          62.0122   88.1012   10.0323 C.ar    1  UNL1       -0.0079
     14 C          62.1306   86.8093    9.2794 C.ar    1  UNL1       -0.0015
     15 C          62.5319   85.5559    9.9990 C.ar    1  UNL1        0.0203
     16 C          62.8147   85.5943   11.4716 C.ar    1  UNL1        0.0984
     17 N          62.6963   86.8863   12.2245 N.ar    1  UNL1       -0.2482
     18 C          62.2950   88.1398   11.5049 C.ar    1  UNL1        0.0587
     19 C          63.5109   88.7736   15.1624 C.3     1  UNL1        0.0499
     20 C          64.1684   87.4298   15.2703 C.3     1  UNL1        0.0774
     21 N          63.4866   86.3186   16.0123 N.3     1  UNL1       -0.2700
     22 C          62.8370   86.5894   17.3370 C.3     1  UNL1        0.0897
     23 C          63.4544   84.9368   15.4296 C.3     1  UNL1        0.0897
@<TRIPOS>BOND
     1    12    13    1
     2    13    14   ar
     3    14    15   ar
     4    15    16   ar
     5    16    17   ar
     6    17    18   ar
     7    18    10    1
     8    10    11    1
     9    10     1    1
    10     1     2   ar
    11     2    19    1
    12    19    20    1
    13    20    21    1
    14    21    22    1
    15    21    23    1
    16     2     3   ar
    17     3     4   ar
    18     4     5   ar
    19     5     6   ar
    20     6     7   ar
    21     7     8   ar
    22     8     9   ar
    23    18    13   ar
    24     9     1   ar
    25     9     4   ar
@<TRIPOS>MOLECULE
*****
 23 25 0 0 0
SMALL
GASTEIGER

@<TRIPOS>ATOM
      1 C          63.4246   87.0612   12.9375 C.ar    1  UNL1       -0.0144
      2 C          63.6269   88.5311   13.1576 C.ar    1  UNL1        0.0051
      3 S          62.9294   89.2657   12.0513 S.2     1  UNL1       -0.0915
      4 C          62.2960   88.2498   11.1475 C.ar    1  UNL1        0.0288
      5 C          61.4801   88.3894    9.8966 C.ar    1  UNL1        0.0065
      6 C          60.9703   87.1665    9.1934 C.ar    1  UNL1        0.0005
      7 C          61.2764   85.8040    9.7411 C.ar    1  UNL1        0.0000
      8 C          62.0922   85.6644   10.9920 C.ar    1  UNL1        0.0002
      9 C          62.6020   86.8873   11.6952 C.ar    1  UNL1        0.0025
     10 C          63.9522   85.9587   13.8070 C.3     1  UNL1        0.0624
     11 C          64.7597   86.2874   15.0277 C.3     1  UNL1        0.0110
     12 C          61.8715   84.4209   15.3256 C.3     1  UNL1        0.0323
     13 C          62.6320   83.7586   14.2153 C.ar    1  UNL1       -0.0079
     14 C          62.3522   82.3274   13.8642 C.ar    1  UNL1       -0.0015
     15 C          63.1127   81.6650   12.7539 C.ar    1  UNL1        0.0203
     16 C          64.1530   82.4338   11.9945 C.ar    1  UNL1        0.0984
     17 N          64.4329   83.8650   12.3456 N.ar    1  UNL1       -0.2482
     18 C          63.6723   84.5275   13.4560 C.ar    1  UNL1        0.0587
     19 C          64.3923   89.1566   14.2858 C.3     1  UNL1        0.0499
     20 C          64.0991   90.5683   14.6993 C.3     1  UNL1        0.0774
     21 N          65.0843   91.6583   14.3973 N.3     1  UNL1       -0.2700
     22 C          65.2771   92.1248   12.9847 C.3     1  UNL1        0.0897
     23 C          65.8768   92.2817   15.5078 C.3     1  UNL1        0.0897
@<TRIPOS>BOND
     1    12    13    1
     2    13    14   ar
     3    14    15   ar
     4    15    16   ar
     5    16    17   ar
     6    17    18   ar
     7    18    10    1
     8    10    11    1
     9    10     1    1
    10     1     2   ar
    11     2    19    1
    12    19    20    1
    13    20    21    1
    14    21    22    1
    15    21    23    1
    16     2     3   ar
    17     3     4   ar
    18     4     5   ar
    19     5     6   ar
    20     6     7   ar
    21     7     8   ar
    22     8     9   ar
    23    18    13   ar
    24     9     1   ar
    25     9     4   ar
@<TRIPOS>MOLECULE
*****
 23 25 0 0 0
SMALL
GASTEIGER

@<TRIPOS>ATOM
      1 C          63.6871   89.3759   12.7912 C.ar    1  UNL1       -0.0144
      2 C          63.5350   90.6336   11.9880 C.ar    1  UNL1        0.0051
      3 S          62.7591   90.3007   10.7481 S.2     1  UNL1       -0.0915
      4 C          62.4317   88.8373   10.7851 C.ar    1  UNL1        0.0288
      5 C          61.6853   87.9515    9.8322 C.ar    1  UNL1        0.0065
      6 C          61.5125   86.4940   10.1419 C.ar    1  UNL1        0.0005
      7 C          62.0861   85.9225   11.4046 C.ar    1  UNL1        0.0000
      8 C          62.8324   86.8084   12.3576 C.ar    1  UNL1        0.0002
      9 C          63.0052   88.2658   12.0478 C.ar    1  UNL1        0.0025
     10 C          64.3965   89.2504   14.1069 C.3     1  UNL1        0.0624
     11 C          65.5254   90.1797   14.4419 C.3     1  UNL1        0.0110
     12 C          62.9856   90.0304   16.6369 C.3     1  UNL1        0.0323
     13 C          63.2717   88.5857   16.3525 C.ar    1  UNL1       -0.0079
     14 C          62.8524   87.5309   17.3331 C.ar    1  UNL1       -0.0015
     15 C          63.1385   86.0862   17.0488 C.ar    1  UNL1        0.0203
     16 C          63.8440   85.6961   15.7837 C.ar    1  UNL1        0.0984
     17 N          64.2633   86.7509   14.8031 N.ar    1  UNL1       -0.2482
     18 C          63.9772   88.1957   15.0875 C.ar    1  UNL1        0.0587
     19 C          64.0657   91.9865   12.3593 C.3     1  UNL1        0.0499
     20 C          65.2982   92.5183   11.6900 C.3     1  UNL1        0.0774
     21 N          66.0255   93.6902   12.2796 N.3     1  UNL1       -0.2700
     22 C          66.2528   94.9234   11.4563 C.3     1  UNL1        0.0897
     23 C          66.5256   93.6290   13.6925 C.3     1  UNL1        0.0897
@<TRIPOS>BOND
     1    12    13    1
     2    13    14   ar
     3    14    15   ar
     4    15    16   ar
     5    16    17   ar
     6    17    18   ar
     7    18    10    1
     8    10    11    1
     9    10     1    1
    10     1     2   ar
    11     2    19    1
    12    19    20    1
    13    20    21    1
    14    21    22    1
    15    21    23    1
    16     2     3   ar
    17     3     4   ar
    18     4     5   ar
    19     5     6   ar
    20     6     7   ar
    21     7     8   ar
    22     8     9   ar
    23    18    13   ar
    24     9     1   ar
    25     9     4   ar
@<TRIPOS>MOLECULE
*****
 23 25 0 0 0
SMALL
GASTEIGER

@<TRIPOS>ATOM
      1 C          63.8203   85.1962   13.4233 C.ar    1  UNL1       -0.0144
      2 C          63.0441   85.8614   12.3257 C.ar    1  UNL1        0.0051
      3 S          62.3423   84.7929   11.5410 S.2     1  UNL1       -0.0915
      4 C          62.6849   83.4673   12.1536 C.ar    1  UNL1        0.0288
      5 C          62.2831   82.0654   11.8024 C.ar    1  UNL1        0.0065
      6 C          62.7947   80.9128   12.6146 C.ar    1  UNL1        0.0005
      7 C          63.7081   81.1621   13.7780 C.ar    1  UNL1        0.0000
      8 C          64.1099   82.5639   14.1292 C.ar    1  UNL1        0.0002
      9 C          63.5983   83.7165   13.3170 C.ar    1  UNL1        0.0025
     10 C          64.6694   85.8889   14.4476 C.3     1  UNL1        0.0624
     11 C          66.0273   85.3484   14.7859 C.3     1  UNL1        0.0110
     12 C          63.1150   85.6514   17.0025 C.3     1  UNL1        0.0323
     13 C          63.3837   87.0034   16.4110 C.ar    1  UNL1       -0.0079
     14 C          62.8753   88.2366   17.0969 C.ar    1  UNL1       -0.0015
     15 C          63.1440   89.5886   16.5054 C.ar    1  UNL1        0.0203
     16 C          63.9212   89.7074   15.2280 C.ar    1  UNL1        0.0984
     17 N          64.4297   88.4742   14.5421 N.ar    1  UNL1       -0.2482
     18 C          64.1610   87.1221   15.1335 C.ar    1  UNL1        0.0587
     19 C          62.9807   87.3363   12.0595 C.3     1  UNL1        0.0499
     20 C          62.0938   87.8645   10.9713 C.3     1  UNL1        0.0774
     21 N          61.7727   89.3285   10.9099 N.3     1  UNL1       -0.2700
     22 C          62.6738   90.3228   11.5803 C.3     1  UNL1        0.0897
     23 C          60.5504   89.7981   10.1781 C.3     1  UNL1        0.0897
@<TRIPOS>BOND
     1    12    13    1
     2    13    14   ar
     3    14    15   ar
     4    15    16   ar
     5    16    17   ar
     6    17    18   ar
     7    18    10    1
     8    10    11    1
     9    10     1    1
    10     1     2   ar
    11     2    19    1
    12    19    20    1
    13    20    21    1
    14    21    22    1
    15    21    23    1
    16     2     3   ar
    17     3     4   ar
    18     4     5   ar
    19     5     6   ar
    20     6     7   ar
    21     7     8   ar
    22     8     9   ar
    23    18    13   ar
    24     9     1   ar
    25     9     4   ar
@<TRIPOS>MOLECULE
*****
 23 25 0 0 0
SMALL
GASTEIGER

@<TRIPOS>ATOM
      1 C          63.2996   88.8460   12.3620 C.ar    1  UNL1       -0.0144
      2 C          63.8617   89.7684   13.4028 C.ar    1  UNL1        0.0051
      3 S          64.3290   88.9337   14.5581 S.2     1  UNL1       -0.0915
      4 C          64.0558   87.4954   14.2314 C.ar    1  UNL1        0.0288
      5 C          64.3041   86.2281   14.9944 C.ar    1  UNL1        0.0065
      6 C          63.9162   84.9066   14.4001 C.ar    1  UNL1        0.0005
      7 C          63.2800   84.8525   13.0428 C.ar    1  UNL1        0.0000
      8 C          63.0316   86.1197   12.2798 C.ar    1  UNL1        0.0002
      9 C          63.4196   87.4412   12.8741 C.ar    1  UNL1        0.0025
     10 C          62.7194   89.2563   11.0410 C.3     1  UNL1        0.0624
     11 C          62.9792   90.6321   10.5026 C.3     1  UNL1        0.0110
     12 C          59.7355   89.2704   11.3512 C.3     1  UNL1        0.0323
     13 C          60.3875   88.2980   10.4135 C.ar    1  UNL1       -0.0079
     14 C          59.5476   87.3327    9.6308 C.ar    1  UNL1       -0.0015
     15 C          60.1995   86.3603    8.6931 C.ar    1  UNL1        0.0203
     16 C          61.6915   86.3532    8.5380 C.ar    1  UNL1        0.0984
     17 N          62.5314   87.3186    9.3206 N.ar    1  UNL1       -0.2482
     18 C          61.8795   88.2910   10.2584 C.ar    1  UNL1        0.0587
     19 C          63.9423   91.2630   13.3054 C.3     1  UNL1        0.0499
     20 C          65.2696   91.9307   13.0995 C.3     1  UNL1        0.0774
     21 N          65.8774   92.7471   14.2013 N.3     1  UNL1       -0.2700
     22 C          66.6318   94.0022   13.8762 C.3     1  UNL1        0.0897
     23 C          65.7309   92.3084   15.6282 C.3     1  UNL1        0.0897
@<TRIPOS>BOND
     1    12    13    1
     2    13    14   ar
     3    14    15   ar
     4    15    16   ar
     5    16    17   ar
     6    17    18   ar
     7    18    10    1
     8    10    11    1
     9    10     1    1
    10     1     2   ar
    11     2    19    1
    12    19    20    1
    13    20    21    1
    14    21    22    1
    15    21    23    1
    16     2     3   ar
    17     3     4   ar
    18     4     5   ar
    19     5     6   ar
    20     6     7   ar
    21     7     8   ar
    22     8     9   ar
    23    18    13   ar
    24     9     1   ar
    25     9     4   ar
@<TRIPOS>MOLECULE
*****
 23 25 0 0 0
SMALL
GASTEIGER

@<TRIPOS>ATOM
      1 C          62.6330   85.5266   11.1760 C.ar    1  UNL1       -0.0144
      2 C          63.1805   84.9634    9.8981 C.ar    1  UNL1        0.0051
      3 S          63.7522   83.6090   10.1959 S.2     1  UNL1       -0.0915
      4 C          63.5580   83.3350   11.6579 C.ar    1  UNL1        0.0288
      5 C          63.9217   82.1596   12.5157 C.ar    1  UNL1        0.0065
      6 C          63.5936   82.1693   13.9793 C.ar    1  UNL1        0.0005
      7 C          62.9019   83.3544   14.5851 C.ar    1  UNL1        0.0000
      8 C          62.5383   84.5299   13.7272 C.ar    1  UNL1        0.0002
      9 C          62.8663   84.5202   12.2636 C.ar    1  UNL1        0.0025
     10 C          61.9688   86.8617   11.3380 C.3     1  UNL1        0.0624
     11 C          60.5528   87.0553   10.8820 C.3     1  UNL1        0.0110
     12 C          61.9812   89.5477   10.0017 C.3     1  UNL1        0.0323
     13 C          62.7266   89.3463   11.2877 C.ar    1  UNL1       -0.0079
     14 C          63.4782   90.4879   11.9056 C.ar    1  UNL1       -0.0015
     15 C          64.2236   90.2866   13.1916 C.ar    1  UNL1        0.0203
     16 C          64.2174   88.9436   13.8598 C.ar    1  UNL1        0.0984
     17 N          63.4658   87.8020   13.2419 N.ar    1  UNL1       -0.2482
     18 C          62.7203   88.0033   11.9558 C.ar    1  UNL1        0.0587
     19 C          63.1599   85.6365    8.5578 C.3     1  UNL1        0.0499
     20 C          62.8887   84.8342    7.3197 C.3     1  UNL1        0.0774
     21 N          61.5211   84.8450    6.7037 N.3     1  UNL1       -0.2700
     22 C          61.2544   84.0566    5.4557 C.3     1  UNL1        0.0897
     23 C          60.4201   85.6441    7.3356 C.3     1  UNL1        0.0897
@<TRIPOS>BOND
     1    12    13    1
     2    13    14   ar
     3    14    15   ar
     4    15    16   ar
     5    16    17   ar
     6    17    18   ar
     7    18    10    1
     8    10    11    1
     9    10     1    1
    10     1     2   ar
    11     2    19    1
    12    19    20    1
    13    20    21    1
    14    21    22    1
    15    21    23    1
    16     2     3   ar
    17     3     4   ar
    18     4     5   ar
    19     5     6   ar
    20     6     7   ar
    21     7     8   ar
    22     8     9   ar
    23    18    13   ar
    24     9     1   ar
    25     9     4   ar
