@<TRIPOS>MOLECULE
*****
 37 40 0 0 0
SMALL
GASTEIGER

@<TRIPOS>ATOM
      1 C          64.5456   91.6176   13.4894 C.3     1  UNL1        0.0725
      2 C          64.3379   90.1707   13.1524 C.3     1  UNL1        0.0239
      3 C          63.9758   89.1938   14.2316 C.3     1  UNL1        0.0237
      4 C          63.8214   89.6638   15.6477 C.2     1  UNL1       -0.0441
      5 C          63.4593   88.6869   16.7268 C.2     1  UNL1       -0.0084
      6 C          64.0291   91.1106   15.9846 C.3     1  UNL1        0.0237
      7 C          64.3912   92.0875   14.9054 C.3     1  UNL1        0.0239
      8 C          63.2516   87.2400   16.3899 C.ar    1  UNL1        0.0024
      9 C          62.1592   86.4627   17.0624 C.ar    1  UNL1        0.0002
     10 C          61.9515   85.0158   16.7254 C.ar    1  UNL1        0.0031
     11 C          62.8362   84.3464   15.7159 C.ar    1  UNL1        0.0376
     12 C          63.9287   85.1238   15.0434 C.ar    1  UNL1        0.1472
     13 C          64.1363   86.5706   15.3804 C.ar    1  UNL1        0.0375
     14 O          64.8134   84.4544   14.0339 O.3     1  UNL1       -0.4361
     15 C          64.3102   83.2691   13.2645 C.ar    1  UNL1        0.2297
     16 C          64.2507   83.3176   11.7665 C.ar    1  UNL1        0.0581
     17 C          63.7475   82.1323   10.9972 C.ar    1  UNL1        0.0102
     18 C          63.3038   80.8985   11.7259 C.ar    1  UNL1        0.0907
     19 C          63.3634   80.8500   13.2239 C.ar    1  UNL1        0.1059
     20 N          63.8666   82.0353   13.9932 N.ar    1  UNL1       -0.2099
     21 C          62.8006   79.7132   10.9565 C.3     1  UNL1        0.4200
     22 F          62.2974   78.5279   10.1872 F       1  UNL1       -0.1658
     23 F          63.1412   80.4040    9.6694 F       1  UNL1       -0.1658
     24 F          62.4600   79.0224   12.2436 F       1  UNL1       -0.1658
     25 C          66.3455   92.9485   12.1706 C.2     1  UNL1        0.2473
     26 O          67.4212   92.3256   13.0102 O.2     1  UNL1       -0.2701
     27 N          64.9078   92.5944   12.4102 N.am    1  UNL1       -0.3024
     28 H          64.2017   93.0032   11.8592 H       1  UNL1        0.1497
     29 N          67.7940   96.8560    7.8540 N.pl3   1  UNL1       -0.3426
     30 C          67.4319   95.8791    8.9331 C.ar    1  UNL1        0.1254
     31 C          67.8842   94.4523    8.8358 C.ar    1  UNL1        0.0340
     32 C          67.5221   93.4754    9.9150 C.ar    1  UNL1        0.0089
     33 C          66.7076   93.9253   11.0915 C.ar    1  UNL1        0.0726
     34 C          66.2553   95.3522   11.1888 C.ar    1  UNL1        0.1048
     35 N          66.6174   96.3290   10.1096 N.ar    1  UNL1       -0.2295
     36 H          68.3285   96.5606    7.0818 H       1  UNL1        0.1437
     37 H          67.4971   97.7925    7.9179 H       1  UNL1        0.1437
@<TRIPOS>BOND
     1    29    30    1
     2    30    31   ar
     3    31    32   ar
     4    32    33   ar
     5    33    25    1
     6    25    26    2
     7    25    27   am
     8    27     1    1
     9     1     2    1
    10     2     3    1
    11     3     4    1
    12     4     5    2
    13     5     8    1
    14     8     9   ar
    15     9    10   ar
    16    10    11   ar
    17    11    12   ar
    18    12    14    1
    19    14    15    1
    20    15    16   ar
    21    16    17   ar
    22    17    18   ar
    23    18    21    1
    24    21    22    1
    25    21    23    1
    26    21    24    1
    27    18    19   ar
    28    19    20   ar
    29    12    13   ar
    30     4     6    1
    31     6     7    1
    32    33    34   ar
    33    34    35   ar
    34    35    30   ar
    35     7     1    1
    36    13     8   ar
    37    20    15   ar
    38    29    36    1
    39    29    37    1
    40    27    28    1
@<TRIPOS>MOLECULE
*****
 37 40 0 0 0
SMALL
GASTEIGER

@<TRIPOS>ATOM
      1 C          64.5447   91.4560   13.4739 C.3     1  UNL1        0.0725
      2 C          64.3087   90.0111   13.1470 C.3     1  UNL1        0.0239
      3 C          63.9492   89.0448   14.2364 C.3     1  UNL1        0.0237
      4 C          63.8256   89.5232   15.6527 C.2     1  UNL1       -0.0441
      5 C          63.4661   88.5568   16.7421 C.2     1  UNL1       -0.0084
      6 C          64.0616   90.9680   15.9796 C.3     1  UNL1        0.0237
      7 C          64.4211   91.9344   14.8902 C.3     1  UNL1        0.0239
      8 C          63.2301   87.1120   16.4152 C.ar    1  UNL1        0.0024
      9 C          62.3479   86.2781   17.2963 C.ar    1  UNL1        0.0002
     10 C          62.1119   84.8332   16.9694 C.ar    1  UNL1        0.0031
     11 C          62.7582   84.2224   15.7614 C.ar    1  UNL1        0.0376
     12 C          63.6403   85.0564   14.8803 C.ar    1  UNL1        0.1472
     13 C          63.8763   86.5011   15.2072 C.ar    1  UNL1        0.0375
     14 O          64.2866   84.4455   13.6723 O.3     1  UNL1       -0.4361
     15 C          63.7005   84.6761   12.3109 C.ar    1  UNL1        0.2297
     16 C          64.1297   83.8220   11.1550 C.ar    1  UNL1        0.0581
     17 C          63.5437   84.0526    9.7937 C.ar    1  UNL1        0.0102
     18 C          62.5284   85.1375    9.5882 C.ar    1  UNL1        0.0907
     19 C          62.0991   85.9917   10.7441 C.ar    1  UNL1        0.1059
     20 N          62.6852   85.7610   12.1054 N.ar    1  UNL1       -0.2099
     21 C          61.9423   85.3681    8.2268 C.3     1  UNL1        0.4200
     22 F          61.3563   85.5987    6.8654 F       1  UNL1       -0.1658
     23 F          60.7041   85.9349    8.8558 F       1  UNL1       -0.1658
     24 F          63.1804   84.8013    7.5978 F       1  UNL1       -0.1658
     25 C          66.3270   92.8661   12.2150 C.2     1  UNL1        0.2473
     26 O          67.3903   92.3433   13.1348 O.2     1  UNL1       -0.2701
     27 N          64.9043   92.4224   12.3845 N.am    1  UNL1       -0.3024
     28 H          64.2064   92.7655   11.7807 H       1  UNL1        0.1497
     29 N          67.7652   96.7316    7.8573 N.pl3   1  UNL1       -0.3426
     30 C          67.4057   95.7652    8.9467 C.ar    1  UNL1        0.1254
     31 C          67.7492   94.3121    8.8038 C.ar    1  UNL1        0.0340
     32 C          67.3896   93.3457    9.8932 C.ar    1  UNL1        0.0089
     33 C          66.6866   93.8324   11.1255 C.ar    1  UNL1        0.0726
     34 C          66.3430   95.2855   11.2685 C.ar    1  UNL1        0.1048
     35 N          66.7026   96.2519   10.1791 N.ar    1  UNL1       -0.2295
     36 H          68.2267   96.4121    7.0484 H       1  UNL1        0.1437
     37 H          67.5397   97.6853    7.9511 H       1  UNL1        0.1437
@<TRIPOS>BOND
     1    29    30    1
     2    30    31   ar
     3    31    32   ar
     4    32    33   ar
     5    33    25    1
     6    25    26    2
     7    25    27   am
     8    27     1    1
     9     1     2    1
    10     2     3    1
    11     3     4    1
    12     4     5    2
    13     5     8    1
    14     8     9   ar
    15     9    10   ar
    16    10    11   ar
    17    11    12   ar
    18    12    14    1
    19    14    15    1
    20    15    16   ar
    21    16    17   ar
    22    17    18   ar
    23    18    21    1
    24    21    22    1
    25    21    23    1
    26    21    24    1
    27    18    19   ar
    28    19    20   ar
    29    12    13   ar
    30     4     6    1
    31     6     7    1
    32    33    34   ar
    33    34    35   ar
    34    35    30   ar
    35     7     1    1
    36    13     8   ar
    37    20    15   ar
    38    29    36    1
    39    29    37    1
    40    27    28    1
@<TRIPOS>MOLECULE
*****
 37 40 0 0 0
SMALL
GASTEIGER

@<TRIPOS>ATOM
      1 C          63.6877   84.4070   14.0824 C.3     1  UNL1        0.0725
      2 C          63.8701   85.5088   13.0810 C.3     1  UNL1        0.0239
      3 C          63.9838   86.9312   13.5434 C.3     1  UNL1        0.0237
      4 C          63.9150   87.2518   15.0072 C.2     1  UNL1       -0.0441
      5 C          64.0286   88.6742   15.4696 C.2     1  UNL1       -0.0084
      6 C          63.7326   86.1500   16.0085 C.3     1  UNL1        0.0237
      7 C          63.6189   84.7276   15.5461 C.3     1  UNL1        0.0239
      8 C          64.2111   89.7761   14.4682 C.ar    1  UNL1        0.0024
      9 C          65.4042   90.6808   14.5575 C.ar    1  UNL1        0.0002
     10 C          65.5866   91.7826   13.5561 C.ar    1  UNL1        0.0031
     11 C          64.5758   91.9797   12.4654 C.ar    1  UNL1        0.0376
     12 C          63.3827   91.0750   12.3762 C.ar    1  UNL1        0.1472
     13 C          63.2003   89.9732   13.3775 C.ar    1  UNL1        0.0375
     14 O          62.3719   91.2721   11.2855 O.3     1  UNL1       -0.4361
     15 C          61.8511   90.0899   10.5230 C.ar    1  UNL1        0.2297
     16 C          62.6440   88.8174   10.4788 C.ar    1  UNL1        0.0581
     17 C          62.1232   87.6354    9.7164 C.ar    1  UNL1        0.0102
     18 C          60.8095   87.7258    8.9981 C.ar    1  UNL1        0.0907
     19 C          60.0166   88.9983    9.0423 C.ar    1  UNL1        0.1059
     20 N          60.5374   90.1803    9.8048 N.ar    1  UNL1       -0.2099
     21 C          60.2887   86.5436    8.2356 C.3     1  UNL1        0.4200
     22 F          59.7679   85.3615    7.4732 F       1  UNL1       -0.1658
     23 F          61.6951   86.0918    7.9754 F       1  UNL1       -0.1658
     24 F          58.8823   86.9954    8.4958 F       1  UNL1       -0.1658
     25 C          63.0409   82.6812   12.2512 C.2     1  UNL1        0.2473
     26 O          62.6214   83.8003   11.3448 O.2     1  UNL1       -0.2701
     27 N          63.5740   82.9846   13.6200 N.am    1  UNL1       -0.3024
     28 H          63.8494   82.2501   14.2150 H       1  UNL1        0.1497
     29 N          62.5863   76.9915   10.4016 N.pl3   1  UNL1       -0.3426
     30 C          62.6999   78.4140   10.8640 C.ar    1  UNL1        0.1254
     31 C          63.0073   79.5011    9.8773 C.ar    1  UNL1        0.0340
     32 C          63.1210   80.9235   10.3397 C.ar    1  UNL1        0.0089
     33 C          62.9272   81.2588   11.7888 C.ar    1  UNL1        0.0726
     34 C          62.6198   80.1717   12.7755 C.ar    1  UNL1        0.1048
     35 N          62.5062   78.7493   12.3131 N.ar    1  UNL1       -0.2295
     36 H          62.7134   76.7715    9.4505 H       1  UNL1        0.1437
     37 H          62.3845   76.2780   11.0493 H       1  UNL1        0.1437
@<TRIPOS>BOND
     1    29    30    1
     2    30    31   ar
     3    31    32   ar
     4    32    33   ar
     5    33    25    1
     6    25    26    2
     7    25    27   am
     8    27     1    1
     9     1     2    1
    10     2     3    1
    11     3     4    1
    12     4     5    2
    13     5     8    1
    14     8     9   ar
    15     9    10   ar
    16    10    11   ar
    17    11    12   ar
    18    12    14    1
    19    14    15    1
    20    15    16   ar
    21    16    17   ar
    22    17    18   ar
    23    18    21    1
    24    21    22    1
    25    21    23    1
    26    21    24    1
    27    18    19   ar
    28    19    20   ar
    29    12    13   ar
    30     4     6    1
    31     6     7    1
    32    33    34   ar
    33    34    35   ar
    34    35    30   ar
    35     7     1    1
    36    13     8   ar
    37    20    15   ar
    38    29    36    1
    39    29    37    1
    40    27    28    1
@<TRIPOS>MOLECULE
*****
 37 40 0 0 0
SMALL
GASTEIGER

@<TRIPOS>ATOM
      1 C          60.1275   92.0650    3.9380 C.3     1  UNL1        0.0725
      2 C          61.0378   91.1830    4.7403 C.3     1  UNL1        0.0239
      3 C          60.4639   90.2328    5.7491 C.3     1  UNL1        0.0237
      4 C          58.9797   90.1645    5.9557 C.2     1  UNL1       -0.0441
      5 C          58.4057   89.2143    6.9645 C.2     1  UNL1       -0.0084
      6 C          58.0695   91.0465    5.1534 C.3     1  UNL1        0.0237
      7 C          58.6434   91.9967    4.1446 C.3     1  UNL1        0.0239
      8 C          59.3160   88.3323    7.7668 C.ar    1  UNL1        0.0024
      9 C          59.7946   87.0308    7.1951 C.ar    1  UNL1        0.0002
     10 C          60.7049   86.1488    7.9974 C.ar    1  UNL1        0.0031
     11 C          61.1365   86.5684    9.3713 C.ar    1  UNL1        0.0376
     12 C          60.6579   87.8701    9.9429 C.ar    1  UNL1        0.1472
     13 C          59.7476   88.7520    9.1406 C.ar    1  UNL1        0.0375
     14 O          61.0895   88.2898   11.3168 O.3     1  UNL1       -0.4361
     15 C          62.1384   89.3493   11.4825 C.ar    1  UNL1        0.2297
     16 C          62.5017   90.2323   10.3257 C.ar    1  UNL1        0.0581
     17 C          63.5505   91.2918   10.4914 C.ar    1  UNL1        0.0102
     18 C          64.2360   91.4682   11.8139 C.ar    1  UNL1        0.0907
     19 C          63.8726   90.5852   12.9707 C.ar    1  UNL1        0.1059
     20 N          62.8238   89.5257   12.8050 N.ar    1  UNL1       -0.2099
     21 C          65.2848   92.5278   11.9796 C.3     1  UNL1        0.4200
     22 F          66.3336   93.5873   12.1452 F       1  UNL1       -0.1658
     23 F          65.6649   91.9439   13.3079 F       1  UNL1       -0.1658
     24 F          64.9048   93.1116   10.6512 F       1  UNL1       -0.1658
     25 C          62.0042   92.6983    2.2567 C.2     1  UNL1        0.2473
     26 O          62.7331   91.4312    2.5931 O.2     1  UNL1       -0.2701
     27 N          60.7014   93.0152    2.9292 N.am    1  UNL1       -0.3024
     28 H          60.2230   93.8469    2.7085 H       1  UNL1        0.1497
     29 N          64.2999   96.4992   -1.7785 N.pl3   1  UNL1       -0.3426
     30 C          63.7259   95.5490   -0.7697 C.ar    1  UNL1        0.1254
     31 C          64.6067   94.5240   -0.1189 C.ar    1  UNL1        0.0340
     32 C          64.0328   93.5738    0.8899 C.ar    1  UNL1        0.0089
     33 C          62.5781   93.6485    1.2479 C.ar    1  UNL1        0.0726
     34 C          61.6973   94.6735    0.5971 C.ar    1  UNL1        0.1048
     35 N          62.2712   95.6237   -0.4117 N.ar    1  UNL1       -0.2295
     36 H          65.2547   96.4501   -2.0135 H       1  UNL1        0.1437
     37 H          63.7218   97.1719   -2.2057 H       1  UNL1        0.1437
@<TRIPOS>BOND
     1    29    30    1
     2    30    31   ar
     3    31    32   ar
     4    32    33   ar
     5    33    25    1
     6    25    26    2
     7    25    27   am
     8    27     1    1
     9     1     2    1
    10     2     3    1
    11     3     4    1
    12     4     5    2
    13     5     8    1
    14     8     9   ar
    15     9    10   ar
    16    10    11   ar
    17    11    12   ar
    18    12    14    1
    19    14    15    1
    20    15    16   ar
    21    16    17   ar
    22    17    18   ar
    23    18    21    1
    24    21    22    1
    25    21    23    1
    26    21    24    1
    27    18    19   ar
    28    19    20   ar
    29    12    13   ar
    30     4     6    1
    31     6     7    1
    32    33    34   ar
    33    34    35   ar
    34    35    30   ar
    35     7     1    1
    36    13     8   ar
    37    20    15   ar
    38    29    36    1
    39    29    37    1
    40    27    28    1
@<TRIPOS>MOLECULE
*****
 37 40 0 0 0
SMALL
GASTEIGER

@<TRIPOS>ATOM
      1 C          62.0946   86.4504   11.1036 C.3     1  UNL1        0.0725
      2 C          63.0686   87.2757   11.8914 C.3     1  UNL1        0.0239
      3 C          63.2813   88.7193   11.5441 C.3     1  UNL1        0.0237
      4 C          62.5200   89.3378   10.4092 C.2     1  UNL1       -0.0441
      5 C          62.7327   90.7814   10.0619 C.2     1  UNL1       -0.0084
      6 C          61.5461   88.5125    9.6215 C.3     1  UNL1        0.0237
      7 C          61.3334   87.0689    9.9687 C.3     1  UNL1        0.0239
      8 C          63.7067   91.6067   10.8497 C.ar    1  UNL1        0.0024
      9 C          64.5602   92.6258   10.1549 C.ar    1  UNL1        0.0002
     10 C          65.5342   93.4510   10.9426 C.ar    1  UNL1        0.0031
     11 C          65.6545   93.2571   12.4252 C.ar    1  UNL1        0.0376
     12 C          64.8009   92.2379   13.1199 C.ar    1  UNL1        0.1472
     13 C          63.8270   91.4127   12.3322 C.ar    1  UNL1        0.0375
     14 O          64.9212   92.0440   14.6025 O.3     1  UNL1       -0.4361
     15 C          64.4304   90.7756   15.2352 C.ar    1  UNL1        0.2297
     16 C          64.7935   89.4492   14.6362 C.ar    1  UNL1        0.0581
     17 C          64.3027   88.1809   15.2689 C.ar    1  UNL1        0.0102
     18 C          63.4487   88.2389   16.5007 C.ar    1  UNL1        0.0907
     19 C          63.0856   89.5653   17.0998 C.ar    1  UNL1        0.1059
     20 N          63.5764   90.8336   16.4670 N.ar    1  UNL1       -0.2099
     21 C          62.9579   86.9705   17.1335 C.3     1  UNL1        0.4200
     22 F          62.4671   85.7022   17.7661 F       1  UNL1       -0.1658
     23 F          62.7834   87.6890   18.4385 F       1  UNL1       -0.1658
     24 F          63.1324   86.2520   15.8284 F       1  UNL1       -0.1658
     25 C          62.8030   84.3245   12.4184 C.2     1  UNL1        0.2473
     26 O          63.9367   85.0860   13.0388 O.2     1  UNL1       -0.2701
     27 N          61.8820   85.0067   11.4509 N.am    1  UNL1       -0.3024
     28 H          61.1378   84.5070   11.0437 H       1  UNL1        0.1497
     29 N          61.9522   78.5498   13.8073 N.pl3   1  UNL1       -0.3426
     30 C          62.1649   79.9935   13.4601 C.ar    1  UNL1        0.1254
     31 C          62.6522   80.3721   12.0930 C.ar    1  UNL1        0.0340
     32 C          62.8648   81.8158   11.7457 C.ar    1  UNL1        0.0089
     33 C          62.5903   82.8808   12.7657 C.ar    1  UNL1        0.0726
     34 C          62.1030   82.5022   14.1328 C.ar    1  UNL1        0.1048
     35 N          61.8904   81.0585   14.4800 N.ar    1  UNL1       -0.2295
     36 H          62.1324   77.8508   13.1379 H       1  UNL1        0.1437
     37 H          61.6324   78.3013   14.7047 H       1  UNL1        0.1437
@<TRIPOS>BOND
     1    29    30    1
     2    30    31   ar
     3    31    32   ar
     4    32    33   ar
     5    33    25    1
     6    25    26    2
     7    25    27   am
     8    27     1    1
     9     1     2    1
    10     2     3    1
    11     3     4    1
    12     4     5    2
    13     5     8    1
    14     8     9   ar
    15     9    10   ar
    16    10    11   ar
    17    11    12   ar
    18    12    14    1
    19    14    15    1
    20    15    16   ar
    21    16    17   ar
    22    17    18   ar
    23    18    21    1
    24    21    22    1
    25    21    23    1
    26    21    24    1
    27    18    19   ar
    28    19    20   ar
    29    12    13   ar
    30     4     6    1
    31     6     7    1
    32    33    34   ar
    33    34    35   ar
    34    35    30   ar
    35     7     1    1
    36    13     8   ar
    37    20    15   ar
    38    29    36    1
    39    29    37    1
    40    27    28    1
@<TRIPOS>MOLECULE
*****
 37 40 0 0 0
SMALL
GASTEIGER

@<TRIPOS>ATOM
      1 C          62.1722   85.5411   11.3335 C.3     1  UNL1        0.0725
      2 C          63.1389   86.0525   12.3601 C.3     1  UNL1        0.0239
      3 C          63.2439   87.5255   12.6232 C.3     1  UNL1        0.0237
      4 C          62.3822   88.4871   11.8596 C.2     1  UNL1       -0.0441
      5 C          62.4872   89.9601   12.1227 C.2     1  UNL1       -0.0084
      6 C          61.4155   87.9756   10.8330 C.3     1  UNL1        0.0237
      7 C          61.3105   86.5026   10.5699 C.3     1  UNL1        0.0239
      8 C          63.4539   90.4716   13.1493 C.ar    1  UNL1        0.0024
      9 C          63.1770   90.2647   14.6089 C.ar    1  UNL1        0.0002
     10 C          64.1437   90.7762   15.6356 C.ar    1  UNL1        0.0031
     11 C          65.3873   91.4945   15.2025 C.ar    1  UNL1        0.0376
     12 C          65.6642   91.7013   13.7428 C.ar    1  UNL1        0.1472
     13 C          64.6975   91.1899   12.7163 C.ar    1  UNL1        0.0375
     14 O          66.9078   92.4197   13.3098 O.3     1  UNL1       -0.4361
     15 C          66.8841   93.2905   12.0887 C.ar    1  UNL1        0.2297
     16 C          67.3198   92.7372   10.7643 C.ar    1  UNL1        0.0581
     17 C          67.2962   93.6081    9.5433 C.ar    1  UNL1        0.0102
     18 C          66.8369   95.0323    9.6466 C.ar    1  UNL1        0.0907
     19 C          66.4012   95.5856   10.9710 C.ar    1  UNL1        0.1059
     20 N          66.4249   94.7148   12.1920 N.ar    1  UNL1       -0.2099
     21 C          66.8133   95.9032    8.4255 C.3     1  UNL1        0.4200
     22 F          66.7896   96.7741    7.2045 F       1  UNL1       -0.1658
     23 F          67.7385   94.9506    7.7281 F       1  UNL1       -0.1658
     24 F          65.8881   96.8559    9.1229 F       1  UNL1       -0.1658
     25 C          63.0920   83.1302   11.6361 C.2     1  UNL1        0.2473
     26 O          64.2219   83.6654   12.4649 O.2     1  UNL1       -0.2701
     27 N          62.0672   84.0680   11.0704 N.am    1  UNL1       -0.3024
     28 H          61.3256   83.7168   10.5264 H       1  UNL1        0.1497
     29 N          62.6720   77.2382   10.5838 N.pl3   1  UNL1       -0.3426
     30 C          62.7770   78.7112   10.8469 C.ar    1  UNL1        0.1254
     31 C          63.0165   79.6607    9.7107 C.ar    1  UNL1        0.0340
     32 C          63.1215   81.1338    9.9738 C.ar    1  UNL1        0.0089
     33 C          62.9870   81.6572   11.3730 C.ar    1  UNL1        0.0726
     34 C          62.7475   80.7076   12.5092 C.ar    1  UNL1        0.1048
     35 N          62.6425   79.2346   12.2461 N.ar    1  UNL1       -0.2295
     36 H          62.7603   76.8946    9.6654 H       1  UNL1        0.1437
     37 H          62.5148   76.6149   11.3296 H       1  UNL1        0.1437
@<TRIPOS>BOND
     1    29    30    1
     2    30    31   ar
     3    31    32   ar
     4    32    33   ar
     5    33    25    1
     6    25    26    2
     7    25    27   am
     8    27     1    1
     9     1     2    1
    10     2     3    1
    11     3     4    1
    12     4     5    2
    13     5     8    1
    14     8     9   ar
    15     9    10   ar
    16    10    11   ar
    17    11    12   ar
    18    12    14    1
    19    14    15    1
    20    15    16   ar
    21    16    17   ar
    22    17    18   ar
    23    18    21    1
    24    21    22    1
    25    21    23    1
    26    21    24    1
    27    18    19   ar
    28    19    20   ar
    29    12    13   ar
    30     4     6    1
    31     6     7    1
    32    33    34   ar
    33    34    35   ar
    34    35    30   ar
    35     7     1    1
    36    13     8   ar
    37    20    15   ar
    38    29    36    1
    39    29    37    1
    40    27    28    1
@<TRIPOS>MOLECULE
*****
 37 40 0 0 0
SMALL
GASTEIGER

@<TRIPOS>ATOM
      1 C          60.4310   92.1992    3.6907 C.3     1  UNL1        0.0725
      2 C          61.2553   91.1684    4.4035 C.3     1  UNL1        0.0239
      3 C          60.6290   90.3057    5.4586 C.3     1  UNL1        0.0237
      4 C          59.1782   90.4737    5.8010 C.2     1  UNL1       -0.0441
      5 C          58.5519   89.6110    6.8562 C.2     1  UNL1       -0.0084
      6 C          58.3539   91.5045    5.0883 C.3     1  UNL1        0.0237
      7 C          58.9803   92.3672    4.0331 C.3     1  UNL1        0.0239
      8 C          59.3763   88.5802    7.5690 C.ar    1  UNL1        0.0024
      9 C          59.3130   87.1435    7.1428 C.ar    1  UNL1        0.0002
     10 C          60.1374   86.1127    7.8555 C.ar    1  UNL1        0.0031
     11 C          61.0250   86.5188    8.9945 C.ar    1  UNL1        0.0376
     12 C          61.0882   87.9556    9.4208 C.ar    1  UNL1        0.1472
     13 C          60.2638   88.9863    8.7080 C.ar    1  UNL1        0.0375
     14 O          61.9758   88.3617   10.5597 O.3     1  UNL1       -0.4361
     15 C          62.4794   87.3283   11.5234 C.ar    1  UNL1        0.2297
     16 C          62.1534   85.8801   11.3082 C.ar    1  UNL1        0.0581
     17 C          62.6570   84.8468   12.2719 C.ar    1  UNL1        0.0102
     18 C          63.4865   85.2618   13.4508 C.ar    1  UNL1        0.0907
     19 C          63.8124   86.7100   13.6660 C.ar    1  UNL1        0.1059
     20 N          63.3089   87.7433   12.7023 N.ar    1  UNL1       -0.2099
     21 C          63.9901   84.2284   14.4145 C.3     1  UNL1        0.4200
     22 F          64.4936   83.1951   15.3781 F       1  UNL1       -0.1658
     23 F          65.3807   84.7721   14.2709 F       1  UNL1       -0.1658
     24 F          62.5995   83.6847   14.5581 F       1  UNL1       -0.1658
     25 C          62.3978   92.6992    2.0686 C.2     1  UNL1        0.2473
     26 O          63.1120   91.4739    2.5568 O.2     1  UNL1       -0.2701
     27 N          61.0573   93.0619    2.6355 N.am    1  UNL1       -0.3024
     28 H          60.5886   93.8661    2.3151 H       1  UNL1        0.1497
     29 N          64.9033   96.1501   -2.1521 N.pl3   1  UNL1       -0.3426
     30 C          64.2769   95.2874   -1.0970 C.ar    1  UNL1        0.1254
     31 C          65.0802   94.8576    0.0947 C.ar    1  UNL1        0.0340
     32 C          64.4538   93.9949    1.1499 C.ar    1  UNL1        0.0089
     33 C          63.0242   93.5619    1.0134 C.ar    1  UNL1        0.0726
     34 C          62.2209   93.9917   -0.1782 C.ar    1  UNL1        0.1048
     35 N          62.8473   94.8544   -1.2334 N.ar    1  UNL1       -0.2295
     36 H          65.8416   96.4343   -2.0625 H       1  UNL1        0.1437
     37 H          64.3761   96.4321   -2.9343 H       1  UNL1        0.1437
@<TRIPOS>BOND
     1    29    30    1
     2    30    31   ar
     3    31    32   ar
     4    32    33   ar
     5    33    25    1
     6    25    26    2
     7    25    27   am
     8    27     1    1
     9     1     2    1
    10     2     3    1
    11     3     4    1
    12     4     5    2
    13     5     8    1
    14     8     9   ar
    15     9    10   ar
    16    10    11   ar
    17    11    12   ar
    18    12    14    1
    19    14    15    1
    20    15    16   ar
    21    16    17   ar
    22    17    18   ar
    23    18    21    1
    24    21    22    1
    25    21    23    1
    26    21    24    1
    27    18    19   ar
    28    19    20   ar
    29    12    13   ar
    30     4     6    1
    31     6     7    1
    32    33    34   ar
    33    34    35   ar
    34    35    30   ar
    35     7     1    1
    36    13     8   ar
    37    20    15   ar
    38    29    36    1
    39    29    37    1
    40    27    28    1
@<TRIPOS>MOLECULE
*****
 37 40 0 0 0
SMALL
GASTEIGER

@<TRIPOS>ATOM
      1 C          62.8555   90.7874   11.5849 C.3     1  UNL1        0.0725
      2 C          63.2744   89.6094   10.7560 C.3     1  UNL1        0.0239
      3 C          62.2408   88.7874   10.0447 C.3     1  UNL1        0.0237
      4 C          60.7884   89.1432   10.1623 C.2     1  UNL1       -0.0441
      5 C          59.7548   88.3212    9.4510 C.2     1  UNL1       -0.0084
      6 C          60.3695   90.3211   10.9912 C.3     1  UNL1        0.0237
      7 C          61.4031   91.1432   11.7025 C.3     1  UNL1        0.0239
      8 C          60.1737   87.1432    8.6221 C.ar    1  UNL1        0.0024
      9 C          59.3477   86.7249    7.4420 C.ar    1  UNL1        0.0002
     10 C          59.7666   85.5469    6.6130 C.ar    1  UNL1        0.0031
     11 C          61.0115   84.7874    6.9643 C.ar    1  UNL1        0.0376
     12 C          61.8375   85.2058    8.1445 C.ar    1  UNL1        0.1472
     13 C          61.4186   86.3837    8.9733 C.ar    1  UNL1        0.0375
     14 O          63.0824   84.4463    8.4957 O.3     1  UNL1       -0.4361
     15 C          63.3935   84.1385    9.9305 C.ar    1  UNL1        0.2297
     16 C          64.2724   82.9726   10.2740 C.ar    1  UNL1        0.0581
     17 C          64.5834   82.6649   11.7087 C.ar    1  UNL1        0.0102
     18 C          64.0156   83.5232   12.8000 C.ar    1  UNL1        0.0907
     19 C          63.1367   84.6891   12.4566 C.ar    1  UNL1        0.1059
     20 N          62.8256   84.9968   11.0218 N.ar    1  UNL1       -0.2099
     21 C          64.3266   83.2154   14.2348 C.3     1  UNL1        0.4200
     22 F          64.6377   82.9077   15.6696 F       1  UNL1       -0.1658
     23 F          65.3730   84.2902   14.2385 F       1  UNL1       -0.1658
     24 F          63.2803   82.1407   14.2311 F       1  UNL1       -0.1658
     25 C          64.6822   91.0093   13.4190 C.2     1  UNL1        0.2473
     26 O          64.4418   89.5870   13.8305 O.2     1  UNL1       -0.2701
     27 N          63.8891   91.6094   12.2962 N.am    1  UNL1       -0.3024
     28 H          64.0469   92.5429   12.0261 H       1  UNL1        0.1497
     29 N          68.8165   94.2975   16.2641 N.pl3   1  UNL1       -0.3426
     30 C          67.7829   93.4754   15.5528 C.ar    1  UNL1        0.1254
     31 C          66.6708   92.8340   16.3285 C.ar    1  UNL1        0.0340
     32 C          65.6373   92.0119   15.6172 C.ar    1  UNL1        0.0089
     33 C          65.7158   91.8313   14.1303 C.ar    1  UNL1        0.0726
     34 C          66.8279   92.4728   13.3546 C.ar    1  UNL1        0.1048
     35 N          67.8614   93.2949   14.0659 N.ar    1  UNL1       -0.2295
     36 H          68.7650   94.4160   17.2401 H       1  UNL1        0.1437
     37 H          69.5464   94.7185   15.7550 H       1  UNL1        0.1437
@<TRIPOS>BOND
     1    29    30    1
     2    30    31   ar
     3    31    32   ar
     4    32    33   ar
     5    33    25    1
     6    25    26    2
     7    25    27   am
     8    27     1    1
     9     1     2    1
    10     2     3    1
    11     3     4    1
    12     4     5    2
    13     5     8    1
    14     8     9   ar
    15     9    10   ar
    16    10    11   ar
    17    11    12   ar
    18    12    14    1
    19    14    15    1
    20    15    16   ar
    21    16    17   ar
    22    17    18   ar
    23    18    21    1
    24    21    22    1
    25    21    23    1
    26    21    24    1
    27    18    19   ar
    28    19    20   ar
    29    12    13   ar
    30     4     6    1
    31     6     7    1
    32    33    34   ar
    33    34    35   ar
    34    35    30   ar
    35     7     1    1
    36    13     8   ar
    37    20    15   ar
    38    29    36    1
    39    29    37    1
    40    27    28    1
@<TRIPOS>MOLECULE
*****
 37 40 0 0 0
SMALL
GASTEIGER

@<TRIPOS>ATOM
      1 C          63.5212   86.2242   15.7921 C.3     1  UNL1        0.0725
      2 C          64.2545   87.0457   14.7736 C.3     1  UNL1        0.0239
      3 C          64.3853   88.5284   14.9592 C.3     1  UNL1        0.0237
      4 C          63.7829   89.1896   16.1634 C.2     1  UNL1       -0.0441
      5 C          63.9137   90.6723   16.3491 C.2     1  UNL1       -0.0084
      6 C          63.0496   88.3680   17.1819 C.3     1  UNL1        0.0237
      7 C          62.9188   86.8853   16.9962 C.3     1  UNL1        0.0239
      8 C          64.6470   91.4939   15.3305 C.ar    1  UNL1        0.0024
      9 C          65.7406   92.4244   15.7640 C.ar    1  UNL1        0.0002
     10 C          66.4739   93.2460   14.7454 C.ar    1  UNL1        0.0031
     11 C          66.1135   93.1370   13.2935 C.ar    1  UNL1        0.0376
     12 C          65.0198   92.2063   12.8601 C.ar    1  UNL1        0.1472
     13 C          64.2866   91.3848   13.8786 C.ar    1  UNL1        0.0375
     14 O          64.6594   92.0973   11.4081 O.3     1  UNL1       -0.4361
     15 C          63.6409   91.0905   10.9617 C.ar    1  UNL1        0.2297
     16 C          63.4526   89.8200   11.7364 C.ar    1  UNL1        0.0581
     17 C          62.4342   88.8133   11.2900 C.ar    1  UNL1        0.0102
     18 C          61.6039   89.0772   10.0689 C.ar    1  UNL1        0.0907
     19 C          61.7922   90.3477    9.2942 C.ar    1  UNL1        0.1059
     20 N          62.8106   91.3544    9.7406 N.ar    1  UNL1       -0.2099
     21 C          60.5854   88.0704    9.6226 C.3     1  UNL1        0.4200
     22 F          59.5670   87.0637    9.1763 F       1  UNL1       -0.1658
     23 F          60.3824   88.8396    8.3509 F       1  UNL1       -0.1658
     24 F          60.7885   87.3013   10.8942 F       1  UNL1       -0.1658
     25 C          62.8024   84.1931   14.3401 C.2     1  UNL1        0.2473
     26 O          62.3452   85.1276   13.2595 O.2     1  UNL1       -0.2701
     27 N          63.3904   84.7414   15.6064 N.am    1  UNL1       -0.3024
     28 H          63.6905   84.1282   16.3157 H       1  UNL1        0.1497
     29 N          62.2790   78.2623   13.5975 N.pl3   1  UNL1       -0.3426
     30 C          62.4099   79.7450   13.7831 C.ar    1  UNL1        0.1254
     31 C          61.1880   80.5818   14.0214 C.ar    1  UNL1        0.0340
     32 C          61.3188   82.0645   14.2070 C.ar    1  UNL1        0.0089
     33 C          62.6715   82.7104   14.1545 C.ar    1  UNL1        0.0726
     34 C          63.8934   81.8737   13.9163 C.ar    1  UNL1        0.1048
     35 N          63.7626   80.3910   13.7306 N.ar    1  UNL1       -0.2295
     36 H          61.3912   77.8384   13.6320 H       1  UNL1        0.1437
     37 H          63.0810   77.7132   13.4411 H       1  UNL1        0.1437
@<TRIPOS>BOND
     1    29    30    1
     2    30    31   ar
     3    31    32   ar
     4    32    33   ar
     5    33    25    1
     6    25    26    2
     7    25    27   am
     8    27     1    1
     9     1     2    1
    10     2     3    1
    11     3     4    1
    12     4     5    2
    13     5     8    1
    14     8     9   ar
    15     9    10   ar
    16    10    11   ar
    17    11    12   ar
    18    12    14    1
    19    14    15    1
    20    15    16   ar
    21    16    17   ar
    22    17    18   ar
    23    18    21    1
    24    21    22    1
    25    21    23    1
    26    21    24    1
    27    18    19   ar
    28    19    20   ar
    29    12    13   ar
    30     4     6    1
    31     6     7    1
    32    33    34   ar
    33    34    35   ar
    34    35    30   ar
    35     7     1    1
    36    13     8   ar
    37    20    15   ar
    38    29    36    1
    39    29    37    1
    40    27    28    1
