@<TRIPOS>MOLECULE
*****
 30 32 0 0 0
SMALL
GASTEIGER

@<TRIPOS>ATOM
      1 N          62.1466   86.0540   11.2014 N.ar    1  UNL1       -0.3137
      2 C          62.6430   87.2787   11.9110 C.ar    1  UNL1        0.1363
      3 N          63.4383   86.8337   13.1024 N.ar    1  UNL1       -0.2280
      4 C          63.4335   85.3339   13.1290 C.ar    1  UNL1        0.1175
      5 C          64.0530   84.3448   14.0713 C.ar    1  UNL1        0.1193
      6 N          63.8741   82.8739   13.8387 N.ar    1  UNL1       -0.2382
      7 C          63.0757   82.3920   12.6638 C.ar    1  UNL1        0.1542
      8 C          62.4563   83.3810   11.7215 C.ar    1  UNL1        0.0418
      9 C          62.6352   84.8520   11.9541 C.ar    1  UNL1        0.0816
     10 C          62.8969   80.9209   12.4312 C.3     1  UNL1        0.4349
     11 F          62.7180   79.4499   12.1985 F       1  UNL1       -0.1644
     12 F          63.0194   80.6728   13.9054 F       1  UNL1       -0.1644
     13 F          62.7743   81.1689   10.9569 F       1  UNL1       -0.1644
     14 C          61.9569   85.8348    8.6195 C.3     1  UNL1        0.0265
     15 C          61.3087   86.0345    9.9573 C.3     1  UNL1        0.1073
     16 C          62.3886   88.6991   11.5013 C.3     1  UNL1        0.1319
     17 C          62.3845   89.0712   10.0482 C.3     1  UNL1        0.0270
     18 N          62.1384   89.7473   12.5446 N.3     1  UNL1       -0.1735
     19 H          61.6616   89.2845   13.3185 H       1  UNL1        0.1492
     20 S          63.2890   90.5061   13.1365 S.O2    1  UNL1        0.0621
     21 O          63.0504   89.8373   14.4577 O.2     1  UNL1       -0.1529
     22 O          63.5276   91.1749   11.8152 O.2     1  UNL1       -0.1529
     23 C          64.4396   91.2649   13.7284 C.ar    1  UNL1        0.1411
     24 C          65.3888   92.0058   12.8340 C.ar    1  UNL1        0.0238
     25 C          66.5394   92.7646   13.4259 C.ar    1  UNL1        0.0310
     26 C          66.7408   92.7825   14.9121 C.ar    1  UNL1        0.1492
     27 N          65.7915   92.0416   15.8066 N.ar    1  UNL1       -0.2321
     28 C          64.6409   91.2828   15.2147 C.ar    1  UNL1        0.1195
     29 C          67.8914   93.5413   15.5040 C.1     1  UNL1        0.1198
     30 N          69.0420   94.3001   16.0959 N.1     1  UNL1       -0.1893
@<TRIPOS>BOND
     1    14    15    1
     2    15     1    1
     3     1     2   ar
     4     2    16    1
     5    16    17    1
     6    16    18    1
     7    18    20    1
     8    20    21    2
     9    20    22    2
    10    20    23    1
    11    23    24   ar
    12    24    25   ar
    13    25    26   ar
    14    26    29    1
    15    29    30    3
    16    26    27   ar
    17    27    28   ar
    18     2     3   ar
    19     3     4   ar
    20     4     5   ar
    21     5     6   ar
    22     6     7   ar
    23     7    10    1
    24    10    11    1
    25    10    12    1
    26    10    13    1
    27     7     8   ar
    28     8     9   ar
    29     9     1   ar
    30    28    23   ar
    31     9     4   ar
    32    18    19    1
@<TRIPOS>MOLECULE
*****
 30 32 0 0 0
SMALL
GASTEIGER

@<TRIPOS>ATOM
      1 N          63.2979   90.5627   12.3126 N.ar    1  UNL1       -0.3137
      2 C          62.6356   90.6553   10.9700 C.ar    1  UNL1        0.1363
      3 N          63.4217   91.6188   10.1310 N.ar    1  UNL1       -0.2280
      4 C          64.5697   92.1216   10.9552 C.ar    1  UNL1        0.1175
      5 C          65.6749   93.0894   10.6521 C.ar    1  UNL1        0.1193
      6 N          66.7035   93.4044   11.6973 N.ar    1  UNL1       -0.2382
      7 C          66.6270   92.7517   13.0457 C.ar    1  UNL1        0.1542
      8 C          65.5218   91.7839   13.3488 C.ar    1  UNL1        0.0418
      9 C          64.4932   91.4688   12.3035 C.ar    1  UNL1        0.0816
     10 C          67.6557   93.0668   14.0910 C.3     1  UNL1        0.4349
     11 F          68.6843   93.3819   15.1362 F       1  UNL1       -0.1644
     12 F          68.4808   91.9021   13.6301 F       1  UNL1       -0.1644
     13 F          66.8306   94.2316   14.5518 F       1  UNL1       -0.1644
     14 C          63.8454   88.9214   14.2508 C.3     1  UNL1        0.0265
     15 C          62.8444   89.7130   13.4626 C.3     1  UNL1        0.1073
     16 C          61.4036   89.9147   10.5415 C.3     1  UNL1        0.1319
     17 C          60.0473   90.4397   10.9081 C.3     1  UNL1        0.0270
     18 N          61.5280   88.6489    9.7463 N.3     1  UNL1       -0.1735
     19 H          62.2385   88.8172    9.0340 H       1  UNL1        0.1492
     20 S          61.8968   87.3662   10.4310 S.O2    1  UNL1        0.0621
     21 O          62.7811   87.0034    9.2751 O.2     1  UNL1       -0.1529
     22 O          61.0124   87.7291   11.5870 O.2     1  UNL1       -0.1529
     23 C          62.2655   86.0836   11.1157 C.ar    1  UNL1        0.1411
     24 C          62.7174   84.9043   10.3063 C.ar    1  UNL1        0.0238
     25 C          63.0861   83.6217   10.9910 C.ar    1  UNL1        0.0310
     26 C          63.0030   83.5182   12.4851 C.ar    1  UNL1        0.1492
     27 N          62.5510   84.6975   13.2946 N.ar    1  UNL1       -0.2321
     28 C          62.1823   85.9802   12.6099 C.ar    1  UNL1        0.1195
     29 C          63.3717   82.2356   13.1698 C.1     1  UNL1        0.1198
     30 N          63.7404   80.9529   13.8545 N.1     1  UNL1       -0.1893
@<TRIPOS>BOND
     1    14    15    1
     2    15     1    1
     3     1     2   ar
     4     2    16    1
     5    16    17    1
     6    16    18    1
     7    18    20    1
     8    20    21    2
     9    20    22    2
    10    20    23    1
    11    23    24   ar
    12    24    25   ar
    13    25    26   ar
    14    26    29    1
    15    29    30    3
    16    26    27   ar
    17    27    28   ar
    18     2     3   ar
    19     3     4   ar
    20     4     5   ar
    21     5     6   ar
    22     6     7   ar
    23     7    10    1
    24    10    11    1
    25    10    12    1
    26    10    13    1
    27     7     8   ar
    28     8     9   ar
    29     9     1   ar
    30    28    23   ar
    31     9     4   ar
    32    18    19    1
@<TRIPOS>MOLECULE
*****
 30 32 0 0 0
SMALL
GASTEIGER

@<TRIPOS>ATOM
      1 N          64.0227   90.2067   13.7526 N.ar    1  UNL1       -0.3137
      2 C          63.2648   90.4696   12.4852 C.ar    1  UNL1        0.1363
      3 N          63.9696   91.5659   11.7426 N.ar    1  UNL1       -0.2280
      4 C          65.1632   91.9804   12.5511 C.ar    1  UNL1        0.1175
      5 C          66.2243   93.0143   12.3166 C.ar    1  UNL1        0.1193
      6 N          67.3183   93.2081   13.3244 N.ar    1  UNL1       -0.2382
      7 C          67.3511   92.3681   14.5666 C.ar    1  UNL1        0.1542
      8 C          66.2899   91.3342   14.8012 C.ar    1  UNL1        0.0418
      9 C          65.1960   91.1404   13.7934 C.ar    1  UNL1        0.0816
     10 C          68.4451   92.5619   15.5744 C.3     1  UNL1        0.4349
     11 F          69.5391   92.7558   16.5822 F       1  UNL1       -0.1644
     12 F          69.4555   92.6167   14.4672 F       1  UNL1       -0.1644
     13 F          67.4348   92.5072   16.6817 F       1  UNL1       -0.1644
     14 C          64.3292   87.8417   14.7837 C.3     1  UNL1        0.0265
     15 C          63.6694   89.1887   14.7962 C.3     1  UNL1        0.1073
     16 C          62.0205   89.7608   12.0388 C.3     1  UNL1        0.1319
     17 C          60.8435   90.5497   11.5466 C.3     1  UNL1        0.0270
     18 N          61.9532   88.2630   12.0844 N.3     1  UNL1       -0.1735
     19 H          61.1327   88.0220   12.6404 H       1  UNL1        0.1492
     20 S          61.8590   87.4773   10.8102 S.O2    1  UNL1        0.0621
     21 O          61.2229   86.3425   11.5570 O.2     1  UNL1       -0.1529
     22 O          62.4950   88.6121   10.0634 O.2     1  UNL1       -0.1529
     23 C          61.7647   86.6916    9.5359 C.ar    1  UNL1        0.1411
     24 C          62.9158   85.8369    9.0950 C.ar    1  UNL1        0.0238
     25 C          62.8216   85.0511    7.8207 C.ar    1  UNL1        0.0310
     26 C          61.5763   85.1201    6.9874 C.ar    1  UNL1        0.1492
     27 N          60.4251   85.9748    7.4284 N.ar    1  UNL1       -0.2321
     28 C          60.5193   86.7605    8.7026 C.ar    1  UNL1        0.1195
     29 C          61.4821   84.3343    5.7131 C.1     1  UNL1        0.1198
     30 N          61.3878   83.5486    4.4389 N.1     1  UNL1       -0.1893
@<TRIPOS>BOND
     1    14    15    1
     2    15     1    1
     3     1     2   ar
     4     2    16    1
     5    16    17    1
     6    16    18    1
     7    18    20    1
     8    20    21    2
     9    20    22    2
    10    20    23    1
    11    23    24   ar
    12    24    25   ar
    13    25    26   ar
    14    26    29    1
    15    29    30    3
    16    26    27   ar
    17    27    28   ar
    18     2     3   ar
    19     3     4   ar
    20     4     5   ar
    21     5     6   ar
    22     6     7   ar
    23     7    10    1
    24    10    11    1
    25    10    12    1
    26    10    13    1
    27     7     8   ar
    28     8     9   ar
    29     9     1   ar
    30    28    23   ar
    31     9     4   ar
    32    18    19    1
@<TRIPOS>MOLECULE
*****
 30 32 0 0 0
SMALL
GASTEIGER

@<TRIPOS>ATOM
      1 N          63.1975   89.6013   12.2625 N.ar    1  UNL1       -0.3137
      2 C          63.8836   89.3190   13.5662 C.ar    1  UNL1        0.1363
      3 N          63.9204   87.8318   13.7580 N.ar    1  UNL1       -0.2280
      4 C          63.2572   87.1949   12.5728 C.ar    1  UNL1        0.1175
      5 C          63.0023   85.7605   12.2159 C.ar    1  UNL1        0.1193
      6 N          62.3007   85.4198   10.9347 N.ar    1  UNL1       -0.2382
      7 C          61.8539   86.5134   10.0104 C.ar    1  UNL1        0.1542
      8 C          62.1087   87.9479   10.3674 C.ar    1  UNL1        0.0418
      9 C          62.8104   88.2886   11.6486 C.ar    1  UNL1        0.0816
     10 C          61.1522   86.1726    8.7291 C.3     1  UNL1        0.4349
     11 F          60.4505   85.8318    7.4480 F       1  UNL1       -0.1644
     12 F          62.4655   85.7956    8.1102 F       1  UNL1       -0.1644
     13 F          59.8390   86.5496    9.3481 F       1  UNL1       -0.1644
     14 C          63.1907   91.2028   10.2167 C.3     1  UNL1        0.0265
     15 C          62.9432   90.9582   11.6757 C.3     1  UNL1        0.1073
     16 C          64.4358   90.3439   14.5120 C.3     1  UNL1        0.1319
     17 C          63.5903   90.8561   15.6401 C.3     1  UNL1        0.0270
     18 N          65.8336   90.8566   14.3297 N.3     1  UNL1       -0.1735
     19 H          66.4239   90.0446   14.1495 H       1  UNL1        0.1492
     20 S          66.1312   91.8561   13.2516 S.O2    1  UNL1        0.0621
     21 O          64.7103   92.3341   13.3025 O.2     1  UNL1       -0.1529
     22 O          67.5521   91.3781   13.2006 O.2     1  UNL1       -0.1529
     23 C          66.4288   92.8556   12.1734 C.ar    1  UNL1        0.1411
     24 C          66.9214   92.3908   10.8350 C.ar    1  UNL1        0.0238
     25 C          67.2190   93.3903    9.7568 C.ar    1  UNL1        0.0310
     26 C          67.0240   94.8546   10.0171 C.ar    1  UNL1        0.1492
     27 N          66.5314   95.3195   11.3555 N.ar    1  UNL1       -0.2321
     28 C          66.2338   94.3200   12.4337 C.ar    1  UNL1        0.1195
     29 C          67.3216   95.8541    8.9389 C.1     1  UNL1        0.1198
     30 N          67.6192   96.8536    7.8607 N.1     1  UNL1       -0.1893
@<TRIPOS>BOND
     1    14    15    1
     2    15     1    1
     3     1     2   ar
     4     2    16    1
     5    16    17    1
     6    16    18    1
     7    18    20    1
     8    20    21    2
     9    20    22    2
    10    20    23    1
    11    23    24   ar
    12    24    25   ar
    13    25    26   ar
    14    26    29    1
    15    29    30    3
    16    26    27   ar
    17    27    28   ar
    18     2     3   ar
    19     3     4   ar
    20     4     5   ar
    21     5     6   ar
    22     6     7   ar
    23     7    10    1
    24    10    11    1
    25    10    12    1
    26    10    13    1
    27     7     8   ar
    28     8     9   ar
    29     9     1   ar
    30    28    23   ar
    31     9     4   ar
    32    18    19    1
@<TRIPOS>MOLECULE
*****
 30 32 0 0 0
SMALL
GASTEIGER

@<TRIPOS>ATOM
      1 N          63.5685   90.8703   12.1380 N.ar    1  UNL1       -0.3137
      2 C          62.4239   89.9727   12.5042 C.ar    1  UNL1        0.1363
      3 N          62.3844   89.8585   13.9993 N.ar    1  UNL1       -0.2280
      4 C          63.5046   90.6855   14.5571 C.ar    1  UNL1        0.1175
      5 C          63.9528   90.9499   15.9639 C.ar    1  UNL1        0.1193
      6 N          65.1329   91.8397   16.2203 N.ar    1  UNL1       -0.2382
      7 C          65.8647   92.4651   15.0699 C.ar    1  UNL1        0.1542
      8 C          65.4165   92.2006   13.6631 C.ar    1  UNL1        0.0418
      9 C          64.2364   91.3109   13.4067 C.ar    1  UNL1        0.0816
     10 C          67.0448   93.3549   15.3264 C.3     1  UNL1        0.4349
     11 F          68.2248   94.2447   15.5828 F       1  UNL1       -0.1644
     12 F          67.4553   92.4799   16.4735 F       1  UNL1       -0.1644
     13 F          66.6342   94.2299   14.1794 F       1  UNL1       -0.1644
     14 C          64.9562   92.3729   10.5360 C.3     1  UNL1        0.0265
     15 C          63.9740   91.2592   10.7471 C.3     1  UNL1        0.1073
     16 C          61.4838   89.3063   11.5439 C.3     1  UNL1        0.1319
     17 C          60.0597   89.7673   11.4466 C.3     1  UNL1        0.0270
     18 N          61.9677   88.1789   10.6809 N.3     1  UNL1       -0.1735
     19 H          62.8475   88.4837   10.2644 H       1  UNL1        0.1492
     20 S          62.2185   86.8280   11.2827 S.O2    1  UNL1        0.0621
     21 O          63.2546   87.4241   12.1889 O.2     1  UNL1       -0.1529
     22 O          61.1824   86.2320   10.3765 O.2     1  UNL1       -0.1529
     23 C          62.4693   85.4771   11.8846 C.ar    1  UNL1        0.1411
     24 C          62.6104   84.2755   10.9979 C.ar    1  UNL1        0.0238
     25 C          62.8612   82.9247   11.5997 C.ar    1  UNL1        0.0310
     26 C          62.9710   82.7754   13.0882 C.ar    1  UNL1        0.1492
     27 N          62.8299   83.9770   13.9749 N.ar    1  UNL1       -0.2321
     28 C          62.5791   85.3279   13.3731 C.ar    1  UNL1        0.1195
     29 C          63.2218   81.4245   13.6900 C.1     1  UNL1        0.1198
     30 N          63.4726   80.0736   14.2918 N.1     1  UNL1       -0.1893
@<TRIPOS>BOND
     1    14    15    1
     2    15     1    1
     3     1     2   ar
     4     2    16    1
     5    16    17    1
     6    16    18    1
     7    18    20    1
     8    20    21    2
     9    20    22    2
    10    20    23    1
    11    23    24   ar
    12    24    25   ar
    13    25    26   ar
    14    26    29    1
    15    29    30    3
    16    26    27   ar
    17    27    28   ar
    18     2     3   ar
    19     3     4   ar
    20     4     5   ar
    21     5     6   ar
    22     6     7   ar
    23     7    10    1
    24    10    11    1
    25    10    12    1
    26    10    13    1
    27     7     8   ar
    28     8     9   ar
    29     9     1   ar
    30    28    23   ar
    31     9     4   ar
    32    18    19    1
@<TRIPOS>MOLECULE
*****
 30 32 0 0 0
SMALL
GASTEIGER

@<TRIPOS>ATOM
      1 N          61.3648   86.4857    9.9676 N.ar    1  UNL1       -0.3137
      2 C          61.5808   87.8690   10.5061 C.ar    1  UNL1        0.1363
      3 N          62.4020   87.7566   11.7563 N.ar    1  UNL1       -0.2280
      4 C          62.6935   86.3040   11.9904 C.ar    1  UNL1        0.1175
      5 C          63.4599   85.5950   13.0675 C.ar    1  UNL1        0.1193
      6 N          63.5851   84.1005   13.0390 N.ar    1  UNL1       -0.2382
      7 C          62.9441   83.3150   11.9335 C.ar    1  UNL1        0.1542
      8 C          62.1777   84.0240   10.8565 C.ar    1  UNL1        0.0418
      9 C          62.0525   85.5185   10.8850 C.ar    1  UNL1        0.0816
     10 C          63.0694   81.8205   11.9051 C.3     1  UNL1        0.4349
     11 F          63.1947   80.3261   11.8767 F       1  UNL1       -0.1644
     12 F          61.7774   81.6978   12.6573 F       1  UNL1       -0.1644
     13 F          64.3613   81.9432   11.1530 F       1  UNL1       -0.1644
     14 C          61.3132   85.5780    7.5338 C.3     1  UNL1        0.0265
     15 C          60.5960   86.1318    8.7291 C.3     1  UNL1        0.1073
     16 C          61.0660   89.1412    9.9006 C.3     1  UNL1        0.1319
     17 C          60.4399   89.1235    8.5377 C.3     1  UNL1        0.0270
     18 N          61.1774   90.4310   10.6582 N.3     1  UNL1       -0.1735
     19 H          60.4746   90.4003   11.3967 H       1  UNL1        0.1492
     20 S          62.4745   90.8083   11.3102 S.O2    1  UNL1        0.0621
     21 O          61.8997   90.4649   12.6524 O.2     1  UNL1       -0.1529
     22 O          63.0493   91.1517    9.9679 O.2     1  UNL1       -0.1529
     23 C          63.7716   91.1856   11.9622 C.ar    1  UNL1        0.1411
     24 C          64.0844   90.7001   13.3465 C.ar    1  UNL1        0.0238
     25 C          65.3815   91.0774   13.9985 C.ar    1  UNL1        0.0310
     26 C          66.3659   91.9403   13.2662 C.ar    1  UNL1        0.1492
     27 N          66.0532   92.4259   11.8818 N.ar    1  UNL1       -0.2321
     28 C          64.7561   92.0486   11.2298 C.ar    1  UNL1        0.1195
     29 C          67.6630   92.3176   13.9182 C.1     1  UNL1        0.1198
     30 N          68.9601   92.6949   14.5702 N.1     1  UNL1       -0.1893
@<TRIPOS>BOND
     1    14    15    1
     2    15     1    1
     3     1     2   ar
     4     2    16    1
     5    16    17    1
     6    16    18    1
     7    18    20    1
     8    20    21    2
     9    20    22    2
    10    20    23    1
    11    23    24   ar
    12    24    25   ar
    13    25    26   ar
    14    26    29    1
    15    29    30    3
    16    26    27   ar
    17    27    28   ar
    18     2     3   ar
    19     3     4   ar
    20     4     5   ar
    21     5     6   ar
    22     6     7   ar
    23     7    10    1
    24    10    11    1
    25    10    12    1
    26    10    13    1
    27     7     8   ar
    28     8     9   ar
    29     9     1   ar
    30    28    23   ar
    31     9     4   ar
    32    18    19    1
@<TRIPOS>MOLECULE
*****
 30 32 0 0 0
SMALL
GASTEIGER

@<TRIPOS>ATOM
      1 N          64.0681   87.6255   13.9398 N.ar    1  UNL1       -0.3137
      2 C          63.2446   87.3344   12.7204 C.ar    1  UNL1        0.1363
      3 N          63.0223   88.6267   11.9919 N.ar    1  UNL1       -0.2280
      4 C          63.7084   89.7164   12.7611 C.ar    1  UNL1        0.1175
      5 C          63.8282   91.1921   12.5209 C.ar    1  UNL1        0.1193
      6 N          64.5942   92.0491   13.4846 N.ar    1  UNL1       -0.2382
      7 C          65.2406   91.4304   14.6885 C.ar    1  UNL1        0.1542
      8 C          65.1208   89.9546   14.9287 C.ar    1  UNL1        0.0418
      9 C          64.3548   89.0976   13.9650 C.ar    1  UNL1        0.0816
     10 C          66.0067   92.2874   15.6521 C.3     1  UNL1        0.4349
     11 F          66.7728   93.1445   16.6157 F       1  UNL1       -0.1644
     12 F          64.8123   92.3364   16.5582 F       1  UNL1       -0.1644
     13 F          67.2011   92.2384   14.7461 F       1  UNL1       -0.1644
     14 C          63.6510   86.2905   16.1293 C.3     1  UNL1        0.0265
     15 C          64.5248   86.6208   14.9558 C.3     1  UNL1        0.1073
     16 C          62.7332   85.9876   12.3027 C.3     1  UNL1        0.1319
     17 C          63.6223   84.7837   12.4026 C.3     1  UNL1        0.0270
     18 N          61.3326   85.8446   11.7851 N.3     1  UNL1       -0.1735
     19 H          60.7082   86.0346   12.5689 H       1  UNL1        0.1492
     20 S          60.8647   86.6963   10.6424 S.O2    1  UNL1        0.0621
     21 O          61.5769   85.7943    9.6785 O.2     1  UNL1       -0.1529
     22 O          60.1525   87.5983   11.6064 O.2     1  UNL1       -0.1529
     23 C          60.3968   87.5480    9.4998 C.ar    1  UNL1        0.1411
     24 C          59.6949   86.9184    8.3333 C.ar    1  UNL1        0.0238
     25 C          59.2269   87.7701    7.1907 C.ar    1  UNL1        0.0310
     26 C          59.4610   89.2515    7.2145 C.ar    1  UNL1        0.1492
     27 N          60.1630   89.8813    8.3810 N.ar    1  UNL1       -0.2321
     28 C          60.6309   89.0295    9.5237 C.ar    1  UNL1        0.1195
     29 C          58.9931   90.1032    6.0719 C.1     1  UNL1        0.1198
     30 N          58.5252   90.9549    4.9292 N.1     1  UNL1       -0.1893
@<TRIPOS>BOND
     1    14    15    1
     2    15     1    1
     3     1     2   ar
     4     2    16    1
     5    16    17    1
     6    16    18    1
     7    18    20    1
     8    20    21    2
     9    20    22    2
    10    20    23    1
    11    23    24   ar
    12    24    25   ar
    13    25    26   ar
    14    26    29    1
    15    29    30    3
    16    26    27   ar
    17    27    28   ar
    18     2     3   ar
    19     3     4   ar
    20     4     5   ar
    21     5     6   ar
    22     6     7   ar
    23     7    10    1
    24    10    11    1
    25    10    12    1
    26    10    13    1
    27     7     8   ar
    28     8     9   ar
    29     9     1   ar
    30    28    23   ar
    31     9     4   ar
    32    18    19    1
@<TRIPOS>MOLECULE
*****
 30 32 0 0 0
SMALL
GASTEIGER

@<TRIPOS>ATOM
      1 N          63.9899   90.5177   13.1147 N.ar    1  UNL1       -0.3137
      2 C          64.1723   90.2624   14.5815 C.ar    1  UNL1        0.1363
      3 N          65.1509   91.2693   15.1090 N.ar    1  UNL1       -0.2280
      4 C          65.5734   92.1470   13.9683 C.ar    1  UNL1        0.1175
      5 C          66.5187   93.3091   13.8927 C.ar    1  UNL1        0.1193
      6 N          66.7464   94.0067   12.5845 N.ar    1  UNL1       -0.2382
      7 C          66.0288   93.5422   11.3519 C.ar    1  UNL1        0.1542
      8 C          65.0835   92.3801   11.4275 C.ar    1  UNL1        0.0418
      9 C          64.8558   91.6825   12.7357 C.ar    1  UNL1        0.0816
     10 C          66.2566   94.2399   10.0437 C.3     1  UNL1        0.4349
     11 F          66.4844   94.9376    8.7355 F       1  UNL1       -0.1644
     12 F          67.2138   93.1600    9.6344 F       1  UNL1       -0.1644
     13 F          65.2994   95.3198   10.4530 F       1  UNL1       -0.1644
     14 C          62.0965   90.4647   11.3364 C.3     1  UNL1        0.0265
     15 C          63.0981   89.7441   12.1893 C.3     1  UNL1        0.1073
     16 C          63.4950   89.1886   15.3805 C.3     1  UNL1        0.1319
     17 C          62.0419   89.3172   15.7294 C.3     1  UNL1        0.0270
     18 N          64.2708   87.9863   15.8304 N.3     1  UNL1       -0.1735
     19 H          64.1230   87.8999   16.8359 H       1  UNL1        0.1492
     20 S          63.9823   86.6409   15.2332 S.O2    1  UNL1        0.0621
     21 O          63.7598   86.0792   16.6061 O.2     1  UNL1       -0.1529
     22 O          64.2049   87.2027   13.8602 O.2     1  UNL1       -0.1529
     23 C          63.6938   85.2955   14.6359 C.ar    1  UNL1        0.1411
     24 C          63.3757   85.1761   13.1750 C.ar    1  UNL1        0.0238
     25 C          63.0872   83.8307   12.5777 C.ar    1  UNL1        0.0310
     26 C          63.1168   82.6048   13.4415 C.ar    1  UNL1        0.1492
     27 N          63.4350   82.7241   14.9025 N.ar    1  UNL1       -0.2321
     28 C          63.7235   84.0695   15.4997 C.ar    1  UNL1        0.1195
     29 C          62.8283   81.2594   12.8442 C.1     1  UNL1        0.1198
     30 N          62.5398   79.9140   12.2470 N.1     1  UNL1       -0.1893
@<TRIPOS>BOND
     1    14    15    1
     2    15     1    1
     3     1     2   ar
     4     2    16    1
     5    16    17    1
     6    16    18    1
     7    18    20    1
     8    20    21    2
     9    20    22    2
    10    20    23    1
    11    23    24   ar
    12    24    25   ar
    13    25    26   ar
    14    26    29    1
    15    29    30    3
    16    26    27   ar
    17    27    28   ar
    18     2     3   ar
    19     3     4   ar
    20     4     5   ar
    21     5     6   ar
    22     6     7   ar
    23     7    10    1
    24    10    11    1
    25    10    12    1
    26    10    13    1
    27     7     8   ar
    28     8     9   ar
    29     9     1   ar
    30    28    23   ar
    31     9     4   ar
    32    18    19    1
@<TRIPOS>MOLECULE
*****
 30 32 0 0 0
SMALL
GASTEIGER

@<TRIPOS>ATOM
      1 N          63.1236   86.9258   12.3701 N.ar    1  UNL1       -0.3137
      2 C          63.3359   88.2460   13.0499 C.ar    1  UNL1        0.1363
      3 N          62.6639   89.3046   12.2265 N.ar    1  UNL1       -0.2280
      4 C          62.0364   88.6386   11.0379 C.ar    1  UNL1        0.1175
      5 C          61.2430   89.1810    9.8862 C.ar    1  UNL1        0.1193
      6 N          60.7337   88.2531    8.8234 N.ar    1  UNL1       -0.2382
      7 C          61.0178   86.7829    8.9122 C.ar    1  UNL1        0.1542
      8 C          61.8112   86.2406   10.0639 C.ar    1  UNL1        0.0418
      9 C          62.3205   87.1684   11.1267 C.ar    1  UNL1        0.0816
     10 C          60.5084   85.8551    7.8493 C.3     1  UNL1        0.4349
     11 F          59.9991   84.9273    6.7864 F       1  UNL1       -0.1644
     12 F          61.9019   85.3474    7.6247 F       1  UNL1       -0.1644
     13 F          59.1150   86.3628    8.0739 F       1  UNL1       -0.1644
     14 C          62.6590   84.5650   13.3501 C.3     1  UNL1        0.0265
     15 C          63.6262   85.5964   12.8497 C.3     1  UNL1        0.1073
     16 C          64.0880   88.4686   14.3284 C.3     1  UNL1        0.1319
     17 C          64.6965   87.3047   15.0530 C.3     1  UNL1        0.0270
     18 N          64.2317   89.8551   14.8824 N.3     1  UNL1       -0.1735
     19 H          64.8640   89.7894   15.6801 H       1  UNL1        0.1492
     20 S          64.7477   90.9614   14.0107 S.O2    1  UNL1        0.0621
     21 O          66.1522   90.4879   14.2414 O.2     1  UNL1       -0.1529
     22 O          63.3432   91.4348   13.7801 O.2     1  UNL1       -0.1529
     23 C          65.2638   92.0676   13.1390 C.ar    1  UNL1        0.1411
     24 C          64.8948   92.1116   11.6858 C.ar    1  UNL1        0.0238
     25 C          65.4109   93.2178   10.8141 C.ar    1  UNL1        0.0310
     26 C          66.2960   94.2801   11.3956 C.ar    1  UNL1        0.1492
     27 N          66.6650   94.2362   12.8489 N.ar    1  UNL1       -0.2321
     28 C          66.1489   93.1299   13.7206 C.ar    1  UNL1        0.1195
     29 C          66.8121   95.3864   10.5239 C.1     1  UNL1        0.1198
     30 N          67.3281   96.4926    9.6522 N.1     1  UNL1       -0.1893
@<TRIPOS>BOND
     1    14    15    1
     2    15     1    1
     3     1     2   ar
     4     2    16    1
     5    16    17    1
     6    16    18    1
     7    18    20    1
     8    20    21    2
     9    20    22    2
    10    20    23    1
    11    23    24   ar
    12    24    25   ar
    13    25    26   ar
    14    26    29    1
    15    29    30    3
    16    26    27   ar
    17    27    28   ar
    18     2     3   ar
    19     3     4   ar
    20     4     5   ar
    21     5     6   ar
    22     6     7   ar
    23     7    10    1
    24    10    11    1
    25    10    12    1
    26    10    13    1
    27     7     8   ar
    28     8     9   ar
    29     9     1   ar
    30    28    23   ar
    31     9     4   ar
    32    18    19    1
