@<TRIPOS>MOLECULE
*****
 25 28 0 0 0
SMALL
GASTEIGER

@<TRIPOS>ATOM
      1 C          64.4045   90.9880   12.7141 C.ar    1  UNL1       -0.0003
      2 C          63.8798   91.7092   11.5081 C.ar    1  UNL1       -0.0003
      3 C          62.9791   90.9983   10.5420 C.ar    1  UNL1       -0.0020
      4 C          62.6030   89.5662   10.7821 C.ar    1  UNL1        0.0016
      5 C          63.1277   88.8450   11.9881 C.ar    1  UNL1       -0.0236
      6 C          64.0284   89.5559   12.9541 C.ar    1  UNL1       -0.0045
      7 C          62.5887   87.4454   11.9621 C.3     1  UNL1        0.0292
      8 C          61.7309   87.3016   10.7400 C.3     1  UNL1        0.0401
      9 C          61.7397   88.6124   10.0106 C.3     1  UNL1        0.1257
     10 O          61.5603   89.7744    9.0794 O.3     1  UNL1       -0.3786
     11 H          60.9809   89.5147    8.3461 H       1  UNL1        0.2111
     12 C          67.1069   93.1207   15.6123 C.ar    1  UNL1        0.1387
     13 C          65.9183   92.3577   16.1174 C.ar    1  UNL1        0.0369
     14 C          65.0175   91.6468   15.1514 C.ar    1  UNL1        0.0031
     15 C          65.3053   91.6989   13.6802 C.ar    1  UNL1        0.0002
     16 C          66.4939   92.4619   13.1750 C.ar    1  UNL1        0.0031
     17 C          67.3946   93.1728   14.1410 C.ar    1  UNL1        0.0369
     18 C          69.3793   94.2601   16.1484 C.3     1  UNL1        0.2525
     19 O          68.0076   93.8316   16.5783 O.3     1  UNL1       -0.4714
     20 C          60.8390   87.9014    9.0446 C.ar    1  UNL1        0.0087
     21 C          59.6981   88.6350    8.4042 C.ar    1  UNL1        0.0190
     22 C          58.7973   87.9241    7.4381 C.ar    1  UNL1        0.0986
     23 N          59.0374   86.4796    7.1125 N.ar    1  UNL1       -0.2423
     24 C          60.1784   85.7461    7.7531 C.ar    1  UNL1        0.0986
     25 C          61.0791   86.4570    8.7191 C.ar    1  UNL1        0.0190
@<TRIPOS>BOND
     1    18    19    1
     2    19    12    1
     3    12    13   ar
     4    13    14   ar
     5    14    15   ar
     6    15     1    1
     7     1     2   ar
     8     2     3   ar
     9     3     4   ar
    10     4     5   ar
    11     5     6   ar
    12     5     7    1
    13     7     8    1
    14     8     9    1
    15     9    10    1
    16     9    20    1
    17    20    21   ar
    18    21    22   ar
    19    22    23   ar
    20    23    24   ar
    21    24    25   ar
    22    15    16   ar
    23    16    17   ar
    24    17    12   ar
    25     6     1   ar
    26    25    20   ar
    27     9     4    1
    28    10    11    1
@<TRIPOS>MOLECULE
*****
 25 28 0 0 0
SMALL
GASTEIGER

@<TRIPOS>ATOM
      1 C          62.4661   87.7120   10.3249 C.ar    1  UNL1       -0.0003
      2 C          62.4304   89.2018   10.1536 C.ar    1  UNL1       -0.0003
      3 C          62.9084   90.0955   11.2593 C.ar    1  UNL1       -0.0020
      4 C          63.4220   89.4996   12.5364 C.ar    1  UNL1        0.0016
      5 C          63.4577   88.0098   12.7078 C.ar    1  UNL1       -0.0236
      6 C          62.9798   87.1161   11.6020 C.ar    1  UNL1       -0.0045
      7 C          64.0132   87.7131   14.0691 C.3     1  UNL1        0.0292
      8 C          64.3209   89.0194   14.7391 C.3     1  UNL1        0.0401
      9 C          63.9555   90.1235   13.7919 C.3     1  UNL1        0.1257
     10 O          63.6900   91.4145   13.0758 O.3     1  UNL1       -0.3786
     11 H          63.9428   92.1580   13.6452 H       1  UNL1        0.2111
     12 C          61.0323   85.0305    7.0077 C.ar    1  UNL1        0.1387
     13 C          60.0851   85.9992    7.6514 C.ar    1  UNL1        0.0369
     14 C          60.5630   86.8931    8.7572 C.ar    1  UNL1        0.0031
     15 C          61.9881   86.8182    9.2191 C.ar    1  UNL1        0.0002
     16 C          62.9353   85.8495    8.5754 C.ar    1  UNL1        0.0031
     17 C          62.4574   84.9557    7.4697 C.ar    1  UNL1        0.0369
     18 C          61.4720   83.7922    4.7665 C.3     1  UNL1        0.2525
     19 O          60.5544   84.1367    5.9019 O.3     1  UNL1       -0.4714
     20 C          64.4335   91.0173   14.8976 C.ar    1  UNL1        0.0087
     21 C          63.6276   91.1504   16.1557 C.ar    1  UNL1        0.0190
     22 C          64.1055   92.0442   17.2615 C.ar    1  UNL1        0.0986
     23 N          65.3894   92.8048   17.1092 N.ar    1  UNL1       -0.2423
     24 C          66.1952   92.6717   15.8510 C.ar    1  UNL1        0.0986
     25 C          65.7173   91.7779   14.7453 C.ar    1  UNL1        0.0190
@<TRIPOS>BOND
     1    18    19    1
     2    19    12    1
     3    12    13   ar
     4    13    14   ar
     5    14    15   ar
     6    15     1    1
     7     1     2   ar
     8     2     3   ar
     9     3     4   ar
    10     4     5   ar
    11     5     6   ar
    12     5     7    1
    13     7     8    1
    14     8     9    1
    15     9    10    1
    16     9    20    1
    17    20    21   ar
    18    21    22   ar
    19    22    23   ar
    20    23    24   ar
    21    24    25   ar
    22    15    16   ar
    23    16    17   ar
    24    17    12   ar
    25     6     1   ar
    26    25    20   ar
    27     9     4    1
    28    10    11    1
@<TRIPOS>MOLECULE
*****
 25 28 0 0 0
SMALL
GASTEIGER

@<TRIPOS>ATOM
      1 C          64.5935   90.0350   14.0780 C.ar    1  UNL1       -0.0003
      2 C          65.7514   90.8851   14.5097 C.ar    1  UNL1       -0.0003
      3 C          66.2254   92.0072   13.6343 C.ar    1  UNL1       -0.0020
      4 C          65.5414   92.2791   12.3273 C.ar    1  UNL1        0.0016
      5 C          64.3834   91.4290   11.8957 C.ar    1  UNL1       -0.0236
      6 C          63.9095   90.3069   12.7711 C.ar    1  UNL1       -0.0045
      7 C          63.9103   91.9317   10.5640 C.3     1  UNL1        0.0292
      8 C          64.7759   93.0926   10.1726 C.3     1  UNL1        0.0401
      9 C          65.7839   93.3073   11.2624 C.3     1  UNL1        0.1257
     10 O          66.8911   93.7566   12.1692 O.3     1  UNL1       -0.3786
     11 H          67.3494   94.5126   11.7699 H       1  UNL1        0.2111
     12 C          63.1715   86.6686   16.7041 C.ar    1  UNL1        0.1387
     13 C          62.9261   88.0915   17.1101 C.ar    1  UNL1        0.0369
     14 C          63.4001   89.2137   16.2348 C.ar    1  UNL1        0.0031
     15 C          64.1195   88.9128   14.9534 C.ar    1  UNL1        0.0002
     16 C          64.3649   87.4898   14.5473 C.ar    1  UNL1        0.0031
     17 C          63.8910   86.3677   15.4226 C.ar    1  UNL1        0.0369
     18 C          62.6419   84.1475   17.0410 C.3     1  UNL1        0.2525
     19 O          62.6976   85.5464   17.5793 O.3     1  UNL1       -0.4714
     20 C          66.2579   94.4294   10.3871 C.ar    1  UNL1        0.0087
     21 C          65.5149   95.7323   10.3698 C.ar    1  UNL1        0.0190
     22 C          65.9888   96.8545    9.4944 C.ar    1  UNL1        0.0986
     23 N          67.2058   96.6736    8.6363 N.ar    1  UNL1       -0.2423
     24 C          67.9488   95.3707    8.6536 C.ar    1  UNL1        0.0986
     25 C          67.4749   94.2486    9.5290 C.ar    1  UNL1        0.0190
@<TRIPOS>BOND
     1    18    19    1
     2    19    12    1
     3    12    13   ar
     4    13    14   ar
     5    14    15   ar
     6    15     1    1
     7     1     2   ar
     8     2     3   ar
     9     3     4   ar
    10     4     5   ar
    11     5     6   ar
    12     5     7    1
    13     7     8    1
    14     8     9    1
    15     9    10    1
    16     9    20    1
    17    20    21   ar
    18    21    22   ar
    19    22    23   ar
    20    23    24   ar
    21    24    25   ar
    22    15    16   ar
    23    16    17   ar
    24    17    12   ar
    25     6     1   ar
    26    25    20   ar
    27     9     4    1
    28    10    11    1
@<TRIPOS>MOLECULE
*****
 25 28 0 0 0
SMALL
GASTEIGER

@<TRIPOS>ATOM
      1 C          64.7881   90.8934   13.2337 C.ar    1  UNL1       -0.0003
      2 C          64.2920   89.5323   13.6228 C.ar    1  UNL1       -0.0003
      3 C          63.3387   88.7975   12.7278 C.ar    1  UNL1       -0.0020
      4 C          62.8814   89.4236   11.4437 C.ar    1  UNL1        0.0016
      5 C          63.3775   90.7847   11.0546 C.ar    1  UNL1       -0.0236
      6 C          64.3309   91.5195   11.9497 C.ar    1  UNL1       -0.0045
      7 C          62.7563   91.1455    9.7379 C.3     1  UNL1        0.0292
      8 C          61.8762   90.0075    9.3132 C.3     1  UNL1        0.0401
      9 C          61.9536   88.9433   10.3674 C.3     1  UNL1        0.1257
     10 O          61.8316   87.7255   11.2345 O.3     1  UNL1       -0.3786
     11 H          61.2287   87.0905   10.8172 H       1  UNL1        0.2111
     12 C          67.6481   93.0982   15.9188 C.ar    1  UNL1        0.1387
     13 C          68.0607   92.7304   14.5243 C.ar    1  UNL1        0.0369
     14 C          67.1074   91.9955   13.6293 C.ar    1  UNL1        0.0031
     15 C          65.7415   91.6283   14.1288 C.ar    1  UNL1        0.0002
     16 C          65.3289   91.9960   15.5232 C.ar    1  UNL1        0.0031
     17 C          66.2822   92.7309   16.4182 C.ar    1  UNL1        0.0369
     18 C          69.5406   94.8497   16.2356 C.3     1  UNL1        0.2525
     19 O          68.6014   93.8331   16.8138 O.3     1  UNL1       -0.4714
     20 C          61.0002   88.2084    9.4724 C.ar    1  UNL1        0.0087
     21 C          59.9608   88.9660    8.7006 C.ar    1  UNL1        0.0190
     22 C          59.0074   88.2311    7.8056 C.ar    1  UNL1        0.0986
     23 N          59.0935   86.7387    7.6823 N.ar    1  UNL1       -0.2423
     24 C          60.1330   85.9811    8.4541 C.ar    1  UNL1        0.0986
     25 C          61.0863   86.7160    9.3491 C.ar    1  UNL1        0.0190
@<TRIPOS>BOND
     1    18    19    1
     2    19    12    1
     3    12    13   ar
     4    13    14   ar
     5    14    15   ar
     6    15     1    1
     7     1     2   ar
     8     2     3   ar
     9     3     4   ar
    10     4     5   ar
    11     5     6   ar
    12     5     7    1
    13     7     8    1
    14     8     9    1
    15     9    10    1
    16     9    20    1
    17    20    21   ar
    18    21    22   ar
    19    22    23   ar
    20    23    24   ar
    21    24    25   ar
    22    15    16   ar
    23    16    17   ar
    24    17    12   ar
    25     6     1   ar
    26    25    20   ar
    27     9     4    1
    28    10    11    1
@<TRIPOS>MOLECULE
*****
 25 28 0 0 0
SMALL
GASTEIGER

@<TRIPOS>ATOM
      1 C          64.1835   88.2168   13.6118 C.ar    1  UNL1       -0.0003
      2 C          64.5227   87.3463   14.7852 C.ar    1  UNL1       -0.0003
      3 C          64.1372   85.8967   14.7800 C.ar    1  UNL1       -0.0020
      4 C          63.4125   85.3176   13.6012 C.ar    1  UNL1        0.0016
      5 C          63.0732   86.1881   12.4278 C.ar    1  UNL1       -0.0236
      6 C          63.4587   87.6377   12.4330 C.ar    1  UNL1       -0.0045
      7 C          62.3587   85.3432   11.4151 C.3     1  UNL1        0.0292
      8 C          62.2564   83.9505   11.9626 C.3     1  UNL1        0.0401
      9 C          62.9076   83.9346   13.3138 C.3     1  UNL1        0.1257
     10 O          63.4783   83.6158   14.6638 O.3     1  UNL1       -0.3786
     11 H          63.3284   82.6788   14.8651 H       1  UNL1        0.2111
     12 C          65.3400   92.5657   13.6275 C.ar    1  UNL1        0.1387
     13 C          64.5153   92.0130   12.5030 C.ar    1  UNL1        0.0369
     14 C          64.1298   90.5633   12.4978 C.ar    1  UNL1        0.0031
     15 C          64.5690   89.6664   13.6170 C.ar    1  UNL1        0.0002
     16 C          65.3937   90.2191   14.7415 C.ar    1  UNL1        0.0031
     17 C          65.7792   91.6687   14.7467 C.ar    1  UNL1        0.0369
     18 C          66.3233   94.6367   12.4054 C.3     1  UNL1        0.2525
     19 O          65.7255   94.0152   13.6327 O.3     1  UNL1       -0.4714
     20 C          62.5221   82.4851   13.3085 C.ar    1  UNL1        0.0087
     21 C          61.5097   81.9747   14.2905 C.ar    1  UNL1        0.0190
     22 C          61.1241   80.5251   14.2853 C.ar    1  UNL1        0.0986
     23 N          61.7511   79.5858   13.2980 N.ar    1  UNL1       -0.2423
     24 C          62.7636   80.0962   12.3160 C.ar    1  UNL1        0.0986
     25 C          63.1491   81.5458   12.3212 C.ar    1  UNL1        0.0190
@<TRIPOS>BOND
     1    18    19    1
     2    19    12    1
     3    12    13   ar
     4    13    14   ar
     5    14    15   ar
     6    15     1    1
     7     1     2   ar
     8     2     3   ar
     9     3     4   ar
    10     4     5   ar
    11     5     6   ar
    12     5     7    1
    13     7     8    1
    14     8     9    1
    15     9    10    1
    16     9    20    1
    17    20    21   ar
    18    21    22   ar
    19    22    23   ar
    20    23    24   ar
    21    24    25   ar
    22    15    16   ar
    23    16    17   ar
    24    17    12   ar
    25     6     1   ar
    26    25    20   ar
    27     9     4    1
    28    10    11    1
@<TRIPOS>MOLECULE
*****
 25 28 0 0 0
SMALL
GASTEIGER

@<TRIPOS>ATOM
      1 C          63.5820   84.3756   13.1268 C.ar    1  UNL1       -0.0003
      2 C          64.2790   84.5794   14.4393 C.ar    1  UNL1       -0.0003
      3 C          64.5496   85.9683   14.9370 C.ar    1  UNL1       -0.0020
      4 C          64.1232   87.1534   14.1222 C.ar    1  UNL1        0.0016
      5 C          63.4263   86.9495   12.8097 C.ar    1  UNL1       -0.0236
      6 C          63.1557   85.5606   12.3120 C.ar    1  UNL1       -0.0045
      7 C          63.1254   88.2998   12.2300 C.3     1  UNL1        0.0292
      8 C          63.6364   89.3383   13.1843 C.3     1  UNL1        0.0401
      9 C          64.2531   88.6297   14.3537 C.3     1  UNL1        0.1257
     10 O          64.9263   88.2115   15.6272 O.3     1  UNL1       -0.3786
     11 H          65.1942   88.9996   16.1252 H       1  UNL1        0.2111
     12 C          62.7702   80.2088   11.6336 C.ar    1  UNL1        0.1387
     13 C          62.4680   80.5671   13.0585 C.ar    1  UNL1        0.0369
     14 C          62.7386   81.9560   13.5562 C.ar    1  UNL1        0.0031
     15 C          63.3114   82.9866   12.6291 C.ar    1  UNL1        0.0002
     16 C          63.6136   82.6284   11.2042 C.ar    1  UNL1        0.0031
     17 C          63.3430   81.2396   10.7064 C.ar    1  UNL1        0.0369
     18 C          62.7776   78.4689    9.7043 C.3     1  UNL1        0.2525
     19 O          62.4996   78.8200   11.1358 O.3     1  UNL1       -0.4714
     20 C          64.5237   90.0186   14.8514 C.ar    1  UNL1        0.0087
     21 C          63.7767   90.5484   16.0394 C.ar    1  UNL1        0.0190
     22 C          64.0473   91.9374   16.5371 C.ar    1  UNL1        0.0986
     23 N          65.0648   92.7965   15.8468 N.ar    1  UNL1       -0.2423
     24 C          65.8118   92.2666   14.6588 C.ar    1  UNL1        0.0986
     25 C          65.5412   90.8777   14.1611 C.ar    1  UNL1        0.0190
@<TRIPOS>BOND
     1    18    19    1
     2    19    12    1
     3    12    13   ar
     4    13    14   ar
     5    14    15   ar
     6    15     1    1
     7     1     2   ar
     8     2     3   ar
     9     3     4   ar
    10     4     5   ar
    11     5     6   ar
    12     5     7    1
    13     7     8    1
    14     8     9    1
    15     9    10    1
    16     9    20    1
    17    20    21   ar
    18    21    22   ar
    19    22    23   ar
    20    23    24   ar
    21    24    25   ar
    22    15    16   ar
    23    16    17   ar
    24    17    12   ar
    25     6     1   ar
    26    25    20   ar
    27     9     4    1
    28    10    11    1
@<TRIPOS>MOLECULE
*****
 25 28 0 0 0
SMALL
GASTEIGER

@<TRIPOS>ATOM
      1 C          62.9131   89.6857   11.5174 C.ar    1  UNL1       -0.0003
      2 C          63.3063   89.0795   12.8319 C.ar    1  UNL1       -0.0003
      3 C          64.3573   89.7367   13.6764 C.ar    1  UNL1       -0.0020
      4 C          65.0152   91.0002   13.2065 C.ar    1  UNL1        0.0016
      5 C          64.6219   91.6065   11.8920 C.ar    1  UNL1       -0.0236
      6 C          63.5709   90.9492   11.0475 C.ar    1  UNL1       -0.0045
      7 C          65.4388   92.8485   11.6916 C.3     1  UNL1        0.0292
      8 C          66.3369   93.0098   12.8821 C.3     1  UNL1        0.0401
      9 C          66.0751   91.8676   13.8184 C.3     1  UNL1        0.1257
     10 O          66.0330   90.8627   14.9312 O.3     1  UNL1       -0.3786
     11 H          66.6710   91.1134   15.6175 H       1  UNL1        0.2111
     12 C          59.7598   87.7140    8.9837 C.ar    1  UNL1        0.1387
     13 C          60.0078   89.1881    8.8598 C.ar    1  UNL1        0.0369
     14 C          61.0590   89.8454    9.7044 C.ar    1  UNL1        0.0031
     15 C          61.8619   89.0285   10.6728 C.ar    1  UNL1        0.0002
     16 C          61.6139   87.5543   10.7967 C.ar    1  UNL1        0.0031
     17 C          60.5628   86.8971    9.9522 C.ar    1  UNL1        0.0369
     18 C          59.0888   85.9636    7.1850 C.3     1  UNL1        0.2525
     19 O          58.7087   87.0567    8.1392 O.3     1  UNL1       -0.4714
     20 C          67.1261   92.5248   14.6629 C.ar    1  UNL1        0.0087
     21 C          67.2638   94.0185   14.6612 C.ar    1  UNL1        0.0190
     22 C          68.3149   94.6758   15.5058 C.ar    1  UNL1        0.0986
     23 N          69.2283   93.8394   16.3520 N.ar    1  UNL1       -0.2423
     24 C          69.0906   92.3457   16.3537 C.ar    1  UNL1        0.0986
     25 C          68.0396   91.6884   15.5091 C.ar    1  UNL1        0.0190
@<TRIPOS>BOND
     1    18    19    1
     2    19    12    1
     3    12    13   ar
     4    13    14   ar
     5    14    15   ar
     6    15     1    1
     7     1     2   ar
     8     2     3   ar
     9     3     4   ar
    10     4     5   ar
    11     5     6   ar
    12     5     7    1
    13     7     8    1
    14     8     9    1
    15     9    10    1
    16     9    20    1
    17    20    21   ar
    18    21    22   ar
    19    22    23   ar
    20    23    24   ar
    21    24    25   ar
    22    15    16   ar
    23    16    17   ar
    24    17    12   ar
    25     6     1   ar
    26    25    20   ar
    27     9     4    1
    28    10    11    1
@<TRIPOS>MOLECULE
*****
 25 28 0 0 0
SMALL
GASTEIGER

@<TRIPOS>ATOM
      1 C          62.7948   89.8194   11.1287 C.ar    1  UNL1       -0.0003
      2 C          63.4598   91.0458   10.5777 C.ar    1  UNL1       -0.0003
      3 C          64.5045   91.7588   11.3841 C.ar    1  UNL1       -0.0020
      4 C          64.8842   91.2454   12.7414 C.ar    1  UNL1        0.0016
      5 C          64.2192   90.0190   13.2923 C.ar    1  UNL1       -0.0236
      6 C          63.1745   89.3060   12.4860 C.ar    1  UNL1       -0.0045
      7 C          64.7959   89.7497   14.6506 C.3     1  UNL1        0.0292
      8 C          65.8173   90.8097   14.9391 C.3     1  UNL1        0.0401
      9 C          65.8719   91.7341   13.7591 C.3     1  UNL1        0.1257
     10 O          66.1448   92.8076   12.7477 O.3     1  UNL1       -0.3786
     11 H          66.8266   93.4074   13.0888 H       1  UNL1        0.2111
     12 C          59.6607   87.6802    8.7098 C.ar    1  UNL1        0.1387
     13 C          60.5036   86.9168    9.6879 C.ar    1  UNL1        0.0369
     14 C          61.5484   87.6299   10.4942 C.ar    1  UNL1        0.0031
     15 C          61.7501   89.1063   10.3224 C.ar    1  UNL1        0.0002
     16 C          60.9072   89.8696    9.3443 C.ar    1  UNL1        0.0031
     17 C          59.8625   89.1566    8.5380 C.ar    1  UNL1        0.0369
     18 C          58.9964   85.7877    7.0584 C.3     1  UNL1        0.2525
     19 O          58.6160   86.9671    7.9034 O.3     1  UNL1       -0.4714
     20 C          66.9165   92.4472   14.5655 C.ar    1  UNL1        0.0087
     21 C          67.8584   91.6649   15.4320 C.ar    1  UNL1        0.0190
     22 C          68.9031   92.3780   16.2384 C.ar    1  UNL1        0.0986
     23 N          69.0060   93.8732   16.1782 N.ar    1  UNL1       -0.2423
     24 C          68.0640   94.6554   15.3115 C.ar    1  UNL1        0.0986
     25 C          67.0194   93.9424   14.5052 C.ar    1  UNL1        0.0190
@<TRIPOS>BOND
     1    18    19    1
     2    19    12    1
     3    12    13   ar
     4    13    14   ar
     5    14    15   ar
     6    15     1    1
     7     1     2   ar
     8     2     3   ar
     9     3     4   ar
    10     4     5   ar
    11     5     6   ar
    12     5     7    1
    13     7     8    1
    14     8     9    1
    15     9    10    1
    16     9    20    1
    17    20    21   ar
    18    21    22   ar
    19    22    23   ar
    20    23    24   ar
    21    24    25   ar
    22    15    16   ar
    23    16    17   ar
    24    17    12   ar
    25     6     1   ar
    26    25    20   ar
    27     9     4    1
    28    10    11    1
@<TRIPOS>MOLECULE
*****
 25 28 0 0 0
SMALL
GASTEIGER

@<TRIPOS>ATOM
      1 C          63.2103   83.2497   12.2628 C.ar    1  UNL1       -0.0003
      2 C          63.9463   83.5875   13.5255 C.ar    1  UNL1       -0.0003
      3 C          64.1307   85.0213   13.9254 C.ar    1  UNL1       -0.0020
      4 C          63.5791   86.1175   13.0627 C.ar    1  UNL1        0.0016
      5 C          62.8432   85.7797   11.8000 C.ar    1  UNL1       -0.0236
      6 C          62.6588   84.3459   11.4001 C.ar    1  UNL1       -0.0045
      7 C          62.4142   87.0646   11.1558 C.3     1  UNL1        0.0292
      8 C          62.8850   88.1965   12.0202 C.3     1  UNL1        0.0401
      9 C          63.6050   87.6111   13.1988 C.3     1  UNL1        0.1257
     10 O          64.3635   87.3255   14.4609 O.3     1  UNL1       -0.3786
     11 H          64.5914   88.1613   14.8973 H       1  UNL1        0.2111
     12 C          62.6571   78.9480   11.0630 C.ar    1  UNL1        0.1387
     13 C          63.0456   79.9692   10.0353 C.ar    1  UNL1        0.0369
     14 C          63.2301   81.4032   10.4353 C.ar    1  UNL1        0.0031
     15 C          63.0259   81.8158   11.8629 C.ar    1  UNL1        0.0002
     16 C          62.6373   80.7946   12.8905 C.ar    1  UNL1        0.0031
     17 C          62.4529   79.3607   12.4906 C.ar    1  UNL1        0.0369
     18 C          63.6081   76.7572   10.0405 C.3     1  UNL1        0.2525
     19 O          62.4726   77.5141   10.6631 O.3     1  UNL1       -0.4714
     20 C          63.7893   89.0450   13.5987 C.ar    1  UNL1        0.0087
     21 C          63.9732   89.4029   15.0437 C.ar    1  UNL1        0.0190
     22 C          64.1576   90.8368   15.4437 C.ar    1  UNL1        0.0986
     23 N          64.1581   91.9128   14.3986 N.ar    1  UNL1       -0.2423
     24 C          63.9742   91.5549   12.9535 C.ar    1  UNL1        0.0986
     25 C          63.7899   90.1210   12.5536 C.ar    1  UNL1        0.0190
@<TRIPOS>BOND
     1    18    19    1
     2    19    12    1
     3    12    13   ar
     4    13    14   ar
     5    14    15   ar
     6    15     1    1
     7     1     2   ar
     8     2     3   ar
     9     3     4   ar
    10     4     5   ar
    11     5     6   ar
    12     5     7    1
    13     7     8    1
    14     8     9    1
    15     9    10    1
    16     9    20    1
    17    20    21   ar
    18    21    22   ar
    19    22    23   ar
    20    23    24   ar
    21    24    25   ar
    22    15    16   ar
    23    16    17   ar
    24    17    12   ar
    25     6     1   ar
    26    25    20   ar
    27     9     4    1
    28    10    11    1
