@<TRIPOS>MOLECULE
*****
 39 41 0 0 0
SMALL
GASTEIGER

@<TRIPOS>ATOM
      1 N          63.3270   86.5468   13.4037 N.am    1  UNL1       -0.2890
      2 C          64.1215   87.8035   13.6032 C.2     1  UNL1        0.3040
      3 O          65.1451   87.8780   14.6971 O.2     1  UNL1       -0.2526
      4 N          63.8923   88.9857   12.7088 N.am    1  UNL1       -0.2641
      5 C          62.8686   88.9112   11.6149 C.3     1  UNL1        0.0949
      6 C          62.6394   90.0933   10.7205 C.3     1  UNL1        0.0217
      7 C          63.4338   91.3500   10.9200 C.3     1  UNL1        0.0062
      8 C          64.4574   91.4244   12.0139 C.3     1  UNL1        0.0514
      9 C          64.6866   90.2423   12.9083 C.3     1  UNL1        0.0977
     10 H          62.6552   86.4980   12.6857 H       1  UNL1        0.1510
     11 C          63.5562   85.3647   14.2981 C.3     1  UNL1        0.0887
     12 C          62.8529   85.2769   15.6201 C.3     1  UNL1        0.0884
     13 C          62.5359   86.3432   17.9679 C.3     1  UNL1        0.0859
     14 N          63.4277   85.9649   16.8226 N.3     1  UNL1       -0.2949
     15 H          64.1458   85.3468   17.2003 H       1  UNL1        0.1233
     16 C          64.4888   84.2704   13.8706 C.3     1  UNL1        0.0210
     17 C          64.0305   83.2370   12.8846 C.3     1  UNL1        0.0017
     18 C          63.2277   82.0590   13.3514 C.3     1  UNL1        0.0001
     19 C          62.7695   81.0256   12.3654 C.3     1  UNL1        0.0000
     20 C          63.1140   81.1703   10.9127 C.3     1  UNL1        0.0000
     21 C          63.9167   82.3483   10.4459 C.3     1  UNL1        0.0000
     22 C          64.3750   83.3816   11.4319 C.3     1  UNL1        0.0001
     23 C          65.2518   92.6810   12.2134 C.3     1  UNL1        0.1391
     24 C          66.0450   93.2553   11.0771 C.ar    1  UNL1        0.0054
     25 C          65.7669   94.6489   10.5972 C.ar    1  UNL1       -0.0019
     26 C          66.5602   95.2231    9.4610 C.ar    1  UNL1        0.0006
     27 C          67.6314   94.4037    8.8046 C.ar    1  UNL1        0.0114
     28 C          67.9095   93.0099    9.2845 C.ar    1  UNL1        0.0574
     29 CL         68.9808   92.1905    8.6281 Cl      1  UNL1       -0.0823
     30 C          67.1163   92.4357   10.4208 C.ar    1  UNL1        0.0095
     31 O          65.2530   93.3635   13.5492 O.3     1  UNL1       -0.3500
     32 C          66.4611   93.2780   14.4340 C.3     1  UNL1        0.1638
     33 C          66.5136   92.2610   15.5354 C.3     1  UNL1        0.1247
     34 N          65.3367   91.3654   15.7860 N.am    1  UNL1       -0.2681
     35 C          64.2070   91.8363   16.6530 C.2     1  UNL1        0.4018
     36 O          64.2540   93.2030   17.2695 O.2     1  UNL1       -0.2264
     37 H          65.3058   90.4684   15.3813 H       1  UNL1        0.1528
     38 O          63.0300   90.9407   16.9036 O.3     1  UNL1       -0.4306
     39 C          63.0964   89.4911   16.5238 C.3     1  UNL1        0.2573
@<TRIPOS>BOND
     1    13    14    1
     2    14    12    1
     3    11    12    1
     4    11    16    1
     5    16    17    1
     6    17    18    1
     7    18    19    1
     8    19    20    1
     9    20    21    1
    10    21    22    1
    11    11     1    1
    12     1     2   am
    13     2     3    2
    14     2     4   am
    15     4     5    1
    16     5     6    1
    17     6     7    1
    18     8     7    1
    19     8    23    1
    20    23    31    1
    21    31    32    1
    22    32    33    1
    23    33    34    1
    24    34    35   am
    25    35    36    2
    26    35    38    1
    27    38    39    1
    28    23    24    1
    29    24    25   ar
    30    25    26   ar
    31    26    27   ar
    32    27    28   ar
    33    28    29    1
    34    28    30   ar
    35     8     9    1
    36    22    17    1
    37     9     4    1
    38    30    24   ar
    39    14    15    1
    40     1    10    1
    41    34    37    1
@<TRIPOS>MOLECULE
*****
 39 41 0 0 0
SMALL
GASTEIGER

@<TRIPOS>ATOM
      1 N          63.2855   91.2032   13.8011 N.am    1  UNL1       -0.2890
      2 C          63.1335   89.9147   13.0484 C.2     1  UNL1        0.3040
      3 O          64.1430   88.8194   13.2249 O.2     1  UNL1       -0.2526
      4 N          61.9719   89.7215   12.1192 N.am    1  UNL1       -0.2641
      5 C          60.9624   90.8169   11.9427 C.3     1  UNL1        0.0949
      6 C          59.8008   90.6237   11.0135 C.3     1  UNL1        0.0217
      7 C          59.6488   89.3351   10.2608 C.3     1  UNL1        0.0062
      8 C          60.6583   88.2398   10.4373 C.3     1  UNL1        0.0514
      9 C          61.8198   88.4330   11.3665 C.3     1  UNL1        0.0977
     10 H          62.6229   91.9221   13.6853 H       1  UNL1        0.1510
     11 C          64.4471   91.3964   14.7304 C.3     1  UNL1        0.0887
     12 C          64.2578   91.2404   16.2102 C.3     1  UNL1        0.0884
     13 C          63.0945   88.9773   16.7348 C.3     1  UNL1        0.0859
     14 N          63.0798   90.4772   16.7392 N.3     1  UNL1       -0.2949
     15 H          62.9521   90.7675   17.7087 H       1  UNL1        0.1233
     16 C          65.7980   91.7457   14.1798 C.3     1  UNL1        0.0210
     17 C          65.9111   92.6448   12.9844 C.3     1  UNL1        0.0017
     18 C          66.2667   94.0908   13.1646 C.3     1  UNL1        0.0001
     19 C          66.3798   94.9899   11.9692 C.3     1  UNL1        0.0000
     20 C          66.1374   94.4428   10.5937 C.3     1  UNL1        0.0000
     21 C          65.7819   92.9968   10.4136 C.3     1  UNL1        0.0000
     22 C          65.6687   92.0978   11.6089 C.3     1  UNL1        0.0001
     23 C          60.5062   86.9513    9.6846 C.3     1  UNL1        0.1391
     24 C          61.5873   85.9134    9.7482 C.ar    1  UNL1        0.0054
     25 C          62.4189   85.6214    8.5346 C.ar    1  UNL1       -0.0019
     26 C          63.5000   84.5835    8.5982 C.ar    1  UNL1        0.0006
     27 C          63.7494   83.8377    9.8754 C.ar    1  UNL1        0.0114
     28 C          62.9177   84.1297   11.0892 C.ar    1  UNL1        0.0574
     29 CL         63.1671   83.3838   12.3664 Cl      1  UNL1       -0.0823
     30 C          61.8366   85.1676   11.0256 C.ar    1  UNL1        0.0095
     31 O          59.2730   86.7007    8.8682 O.3     1  UNL1       -0.3500
     32 C          59.2454   87.0765    7.4163 C.3     1  UNL1        0.1638
     33 C          59.6383   88.4606    6.9924 C.3     1  UNL1        0.1247
     34 N          58.6098   89.3895    6.4183 N.am    1  UNL1       -0.2681
     35 C          59.0380   90.5535    5.5747 C.2     1  UNL1        0.4018
     36 O          60.4948   90.7887    5.3052 O.2     1  UNL1       -0.2264
     37 H          57.6537   89.2351    6.5952 H       1  UNL1        0.1528
     38 O          58.0096   91.4824    5.0007 O.3     1  UNL1       -0.4306
     39 C          56.5523   91.1414    5.1000 C.3     1  UNL1        0.2573
@<TRIPOS>BOND
     1    13    14    1
     2    14    12    1
     3    11    12    1
     4    11    16    1
     5    16    17    1
     6    17    18    1
     7    18    19    1
     8    19    20    1
     9    20    21    1
    10    21    22    1
    11    11     1    1
    12     1     2   am
    13     2     3    2
    14     2     4   am
    15     4     5    1
    16     5     6    1
    17     6     7    1
    18     8     7    1
    19     8    23    1
    20    23    31    1
    21    31    32    1
    22    32    33    1
    23    33    34    1
    24    34    35   am
    25    35    36    2
    26    35    38    1
    27    38    39    1
    28    23    24    1
    29    24    25   ar
    30    25    26   ar
    31    26    27   ar
    32    27    28   ar
    33    28    29    1
    34    28    30   ar
    35     8     9    1
    36    22    17    1
    37     9     4    1
    38    30    24   ar
    39    14    15    1
    40     1    10    1
    41    34    37    1
@<TRIPOS>MOLECULE
*****
 39 41 0 0 0
SMALL
GASTEIGER

@<TRIPOS>ATOM
      1 N          64.3926   91.8436   13.5349 N.am    1  UNL1       -0.2890
      2 C          64.1583   90.3862   13.2680 C.2     1  UNL1        0.3040
      3 O          64.9572   89.3512   14.0032 O.2     1  UNL1       -0.2526
      4 N          63.1250   89.9639   12.2660 N.am    1  UNL1       -0.2641
      5 C          62.3261   90.9990   11.5308 C.3     1  UNL1        0.0949
      6 C          61.2928   90.5766   10.5288 C.3     1  UNL1        0.0217
      7 C          61.0585   89.1192   10.2620 C.3     1  UNL1        0.0062
      8 C          61.8574   88.0842   10.9971 C.3     1  UNL1        0.0514
      9 C          62.8907   88.5066   11.9992 C.3     1  UNL1        0.0977
     10 H          63.8682   92.5229   13.0524 H       1  UNL1        0.1510
     11 C          65.4258   92.2660   14.5369 C.3     1  UNL1        0.0887
     12 C          65.1650   92.0885   16.0034 C.3     1  UNL1        0.0884
     13 C          63.3480   90.3749   16.7186 C.3     1  UNL1        0.0859
     14 N          63.7764   91.7937   16.4879 N.3     1  UNL1       -0.2949
     15 H          63.6641   92.2833   17.3757 H       1  UNL1        0.1233
     16 C          66.7198   92.8658   14.0725 C.3     1  UNL1        0.0210
     17 C          66.9636   93.0818   12.6082 C.3     1  UNL1        0.0017
     18 C          67.7402   92.0693   11.8198 C.3     1  UNL1        0.0001
     19 C          67.9839   92.2854   10.3556 C.3     1  UNL1        0.0000
     20 C          67.4510   93.5140    9.6799 C.3     1  UNL1        0.0000
     21 C          66.6744   94.5265   10.4683 C.3     1  UNL1        0.0000
     22 C          66.4307   94.3104   11.9325 C.3     1  UNL1        0.0001
     23 C          61.6231   86.6269   10.7303 C.3     1  UNL1        0.1391
     24 C          61.3209   86.1585    9.3377 C.ar    1  UNL1        0.0054
     25 C          59.9508   86.3569    8.7604 C.ar    1  UNL1       -0.0019
     26 C          59.6486   85.8885    7.3678 C.ar    1  UNL1        0.0006
     27 C          60.7166   85.2218    6.5525 C.ar    1  UNL1        0.0114
     28 C          62.0869   85.0234    7.1297 C.ar    1  UNL1        0.0574
     29 CL         63.1549   84.3567    6.3144 Cl      1  UNL1       -0.0823
     30 C          62.3890   85.4918    8.5223 C.ar    1  UNL1        0.0095
     31 O          61.6909   85.6379   11.8560 O.3     1  UNL1       -0.3500
     32 C          62.8895   84.7478   12.0012 C.3     1  UNL1        0.1638
     33 C          63.7467   84.8385   13.2288 C.3     1  UNL1        0.1247
     34 N          63.1875   85.4216   14.4927 N.am    1  UNL1       -0.2681
     35 C          62.7449   84.5171   15.6043 C.2     1  UNL1        0.4018
     36 O          62.8615   83.0294   15.4522 O.2     1  UNL1       -0.2264
     37 H          63.1109   86.3981   14.5925 H       1  UNL1        0.1528
     38 O          62.1856   85.1002   16.8682 O.3     1  UNL1       -0.4306
     39 C          62.7122   86.4043   17.3896 C.3     1  UNL1        0.2573
@<TRIPOS>BOND
     1    13    14    1
     2    14    12    1
     3    11    12    1
     4    11    16    1
     5    16    17    1
     6    17    18    1
     7    18    19    1
     8    19    20    1
     9    20    21    1
    10    21    22    1
    11    11     1    1
    12     1     2   am
    13     2     3    2
    14     2     4   am
    15     4     5    1
    16     5     6    1
    17     6     7    1
    18     8     7    1
    19     8    23    1
    20    23    31    1
    21    31    32    1
    22    32    33    1
    23    33    34    1
    24    34    35   am
    25    35    36    2
    26    35    38    1
    27    38    39    1
    28    23    24    1
    29    24    25   ar
    30    25    26   ar
    31    26    27   ar
    32    27    28   ar
    33    28    29    1
    34    28    30   ar
    35     8     9    1
    36    22    17    1
    37     9     4    1
    38    30    24   ar
    39    14    15    1
    40     1    10    1
    41    34    37    1
@<TRIPOS>MOLECULE
*****
 39 41 0 0 0
SMALL
GASTEIGER

@<TRIPOS>ATOM
      1 N          63.0852   85.9876   13.6890 N.am    1  UNL1       -0.2890
      2 C          63.9140   87.2214   13.8913 C.2     1  UNL1        0.3040
      3 O          64.9895   87.2394   14.9367 O.2     1  UNL1       -0.2526
      4 N          63.6671   88.4372   13.0482 N.am    1  UNL1       -0.2641
      5 C          62.5915   88.4192   12.0028 C.3     1  UNL1        0.0949
      6 C          62.3446   89.6351   11.1597 C.3     1  UNL1        0.0217
      7 C          63.1734   90.8689   11.3621 C.3     1  UNL1        0.0062
      8 C          64.2489   90.8869   12.4074 C.3     1  UNL1        0.0514
      9 C          64.4958   89.6710   13.2505 C.3     1  UNL1        0.0977
     10 H          62.3793   85.9758   13.0029 H       1  UNL1        0.1510
     11 C          63.3321   84.7717   14.5321 C.3     1  UNL1        0.0887
     12 C          62.6074   84.6024   15.8345 C.3     1  UNL1        0.0884
     13 C          62.7359   86.5133   17.5899 C.3     1  UNL1        0.0859
     14 N          61.9885   85.7910   16.5084 N.3     1  UNL1       -0.2949
     15 H          61.7935   86.4754   15.7777 H       1  UNL1        0.1233
     16 C          64.3036   83.7252   14.0728 C.3     1  UNL1        0.0210
     17 C          63.9501   82.8253   12.9259 C.3     1  UNL1        0.0017
     18 C          63.1874   81.5579   13.1746 C.3     1  UNL1        0.0001
     19 C          62.8339   80.6580   12.0278 C.3     1  UNL1        0.0000
     20 C          63.2431   81.0256   10.6323 C.3     1  UNL1        0.0000
     21 C          64.0058   82.2930   10.3836 C.3     1  UNL1        0.0000
     22 C          64.3593   83.1929   11.5304 C.3     1  UNL1        0.0001
     23 C          65.0776   92.1207   12.6097 C.3     1  UNL1        0.1391
     24 C          65.9430   92.2515   13.8279 C.ar    1  UNL1        0.0054
     25 C          65.3149   92.3748   15.1844 C.ar    1  UNL1       -0.0019
     26 C          66.1803   92.5056   16.4026 C.ar    1  UNL1        0.0006
     27 C          67.6738   92.5133   16.2642 C.ar    1  UNL1        0.0114
     28 C          68.3021   92.3900   14.9076 C.ar    1  UNL1        0.0574
     29 CL         69.7956   92.3977   14.7693 Cl      1  UNL1       -0.0823
     30 C          67.4367   92.2592   13.6895 C.ar    1  UNL1        0.0095
     31 O          65.0409   93.2237   11.5937 O.3     1  UNL1       -0.3500
     32 C          65.7058   94.5359   11.8870 C.3     1  UNL1        0.1638
     33 C          66.7692   95.0598   10.9679 C.3     1  UNL1        0.1247
     34 N          67.6257   94.1048   10.1904 N.am    1  UNL1       -0.2681
     35 C          67.6371   94.1574    8.6914 C.2     1  UNL1        0.4018
     36 O          66.7921   95.1650    7.9698 O.2     1  UNL1       -0.2264
     37 H          68.1803   93.4435   10.6640 H       1  UNL1        0.1528
     38 O          68.4936   93.2024    7.9139 O.3     1  UNL1       -0.4306
     39 C          68.9696   91.9313    8.5525 C.3     1  UNL1        0.2573
@<TRIPOS>BOND
     1    13    14    1
     2    14    12    1
     3    11    12    1
     4    11    16    1
     5    16    17    1
     6    17    18    1
     7    18    19    1
     8    19    20    1
     9    20    21    1
    10    21    22    1
    11    11     1    1
    12     1     2   am
    13     2     3    2
    14     2     4   am
    15     4     5    1
    16     5     6    1
    17     6     7    1
    18     8     7    1
    19     8    23    1
    20    23    31    1
    21    31    32    1
    22    32    33    1
    23    33    34    1
    24    34    35   am
    25    35    36    2
    26    35    38    1
    27    38    39    1
    28    23    24    1
    29    24    25   ar
    30    25    26   ar
    31    26    27   ar
    32    27    28   ar
    33    28    29    1
    34    28    30   ar
    35     8     9    1
    36    22    17    1
    37     9     4    1
    38    30    24   ar
    39    14    15    1
    40     1    10    1
    41    34    37    1
@<TRIPOS>MOLECULE
*****
 39 41 0 0 0
SMALL
GASTEIGER

@<TRIPOS>ATOM
      1 N          65.4024   91.2050   13.9520 N.am    1  UNL1       -0.2890
      2 C          64.5794   90.3706   13.0158 C.2     1  UNL1        0.3040
      3 O          64.1072   90.9481   11.7145 O.2     1  UNL1       -0.2526
      4 N          64.2285   88.9586   13.3809 N.am    1  UNL1       -0.2641
      5 C          64.7008   88.3811   14.6823 C.3     1  UNL1        0.0949
      6 C          64.3500   86.9691   15.0475 C.3     1  UNL1        0.0217
      7 C          63.5269   86.1347   14.1112 C.3     1  UNL1        0.0062
      8 C          63.0547   86.7123   12.8099 C.3     1  UNL1        0.0514
      9 C          63.4056   88.1242   12.4448 C.3     1  UNL1        0.0977
     10 H          65.7123   90.8259   14.8061 H       1  UNL1        0.1510
     11 C          65.7532   92.6169   13.5868 C.3     1  UNL1        0.0887
     12 C          66.5026   93.4790   14.5592 C.3     1  UNL1        0.0884
     13 C          68.6558   92.9972   15.9307 C.3     1  UNL1        0.0859
     14 N          67.9977   93.3913   14.6417 N.3     1  UNL1       -0.2949
     15 H          68.2919   92.7110   13.9409 H       1  UNL1        0.1233
     16 C          65.3547   93.1668   12.2494 C.3     1  UNL1        0.0210
     17 C          66.3837   93.3357   11.1710 C.3     1  UNL1        0.0017
     18 C          67.2950   92.1974   10.8191 C.3     1  UNL1        0.0001
     19 C          68.3239   92.3663    9.7408 C.3     1  UNL1        0.0000
     20 C          68.4415   93.6734    9.0144 C.3     1  UNL1        0.0000
     21 C          67.5301   94.8116    9.3663 C.3     1  UNL1        0.0000
     22 C          66.5012   94.6428   10.4446 C.3     1  UNL1        0.0001
     23 C          62.2317   85.8779   11.8738 C.3     1  UNL1        0.1391
     24 C          62.6893   84.4996   11.4982 C.ar    1  UNL1        0.0054
     25 C          63.4861   84.2894   10.2449 C.ar    1  UNL1       -0.0019
     26 C          63.9437   82.9112    9.8693 C.ar    1  UNL1        0.0006
     27 C          63.6045   81.7431   10.7471 C.ar    1  UNL1        0.0114
     28 C          62.8077   81.9533   12.0005 C.ar    1  UNL1        0.0574
     29 CL         62.4685   80.7852   12.8783 Cl      1  UNL1       -0.0823
     30 C          62.3501   83.3315   12.3761 C.ar    1  UNL1        0.0095
     31 O          60.9511   86.4217   11.3132 O.3     1  UNL1       -0.3500
     32 C          60.9551   87.1454    9.9993 C.3     1  UNL1        0.1638
     33 C          60.2290   88.4505    9.8598 C.3     1  UNL1        0.1247
     34 N          60.2010   89.1554    8.5360 N.am    1  UNL1       -0.2681
     35 C          59.3791   88.6031    7.4094 C.2     1  UNL1        0.4018
     36 O          58.5852   87.3458    7.6065 O.2     1  UNL1       -0.2264
     37 H          60.7221   89.9806    8.4067 H       1  UNL1        0.1528
     38 O          59.3511   89.3080    6.0856 O.3     1  UNL1       -0.4306
     39 C          58.5651   90.5757    5.9274 C.3     1  UNL1        0.2573
@<TRIPOS>BOND
     1    13    14    1
     2    14    12    1
     3    11    12    1
     4    11    16    1
     5    16    17    1
     6    17    18    1
     7    18    19    1
     8    19    20    1
     9    20    21    1
    10    21    22    1
    11    11     1    1
    12     1     2   am
    13     2     3    2
    14     2     4   am
    15     4     5    1
    16     5     6    1
    17     6     7    1
    18     8     7    1
    19     8    23    1
    20    23    31    1
    21    31    32    1
    22    32    33    1
    23    33    34    1
    24    34    35   am
    25    35    36    2
    26    35    38    1
    27    38    39    1
    28    23    24    1
    29    24    25   ar
    30    25    26   ar
    31    26    27   ar
    32    27    28   ar
    33    28    29    1
    34    28    30   ar
    35     8     9    1
    36    22    17    1
    37     9     4    1
    38    30    24   ar
    39    14    15    1
    40     1    10    1
    41    34    37    1
@<TRIPOS>MOLECULE
*****
 39 41 0 0 0
SMALL
GASTEIGER

@<TRIPOS>ATOM
      1 N          63.7254   82.8302   12.4748 N.am    1  UNL1       -0.2890
      2 C          62.7748   83.9670   12.2418 C.2     1  UNL1        0.3040
      3 O          61.9730   84.5200   13.3824 O.2     1  UNL1       -0.2526
      4 N          62.6262   84.5507   10.8680 N.am    1  UNL1       -0.2641
      5 C          63.4281   83.9977    9.7273 C.3     1  UNL1        0.0949
      6 C          63.2795   84.5814    8.3536 C.3     1  UNL1        0.0217
      7 C          62.3289   85.7183    8.1206 C.3     1  UNL1        0.0062
      8 C          61.5271   86.2712    9.2612 C.3     1  UNL1        0.0514
      9 C          61.6757   85.6875   10.6350 C.3     1  UNL1        0.0977
     10 H          64.2517   82.4672   11.7261 H       1  UNL1        0.1510
     11 C          63.8740   82.2464   13.8485 C.3     1  UNL1        0.0887
     12 C          63.2156   80.9410   14.1840 C.3     1  UNL1        0.0884
     13 C          60.6200   80.8544   14.1121 C.3     1  UNL1        0.0859
     14 N          61.9479   80.5401   13.4895 N.3     1  UNL1       -0.2949
     15 H          61.9582   80.9909   12.5745 H       1  UNL1        0.1233
     16 C          64.6810   82.9680   14.8868 C.3     1  UNL1        0.0210
     17 C          64.3189   84.3704   15.2772 C.3     1  UNL1        0.0017
     18 C          63.3189   84.6104   16.3691 C.3     1  UNL1        0.0001
     19 C          62.9568   86.0127   16.7595 C.3     1  UNL1        0.0000
     20 C          63.5948   87.1749   16.0579 C.3     1  UNL1        0.0000
     21 C          64.5948   86.9349   14.9660 C.3     1  UNL1        0.0000
     22 C          64.9569   85.5326   14.5757 C.3     1  UNL1        0.0001
     23 C          60.5766   87.4080    9.0282 C.3     1  UNL1        0.1391
     24 C          60.7271   88.6827    9.8045 C.ar    1  UNL1        0.0054
     25 C          59.5780   89.2091   10.6120 C.ar    1  UNL1       -0.0019
     26 C          59.7285   90.4838   11.3882 C.ar    1  UNL1        0.0006
     27 C          61.0281   91.2320   11.3570 C.ar    1  UNL1        0.0114
     28 C          62.1774   90.7055   10.5494 C.ar    1  UNL1        0.0574
     29 CL         63.4771   91.4537   10.5181 Cl      1  UNL1       -0.0823
     30 C          62.0269   89.4308    9.7731 C.ar    1  UNL1        0.0095
     31 O          59.4756   87.2701    8.0188 O.3     1  UNL1       -0.3500
     32 C          59.4515   88.1569    6.8093 C.3     1  UNL1        0.1638
     33 C          58.9386   89.5621    6.9197 C.3     1  UNL1        0.1247
     34 N          59.2861   90.5723    5.8667 N.am    1  UNL1       -0.2681
     35 C          58.1965   91.2687    5.1068 C.2     1  UNL1        0.4018
     36 O          56.7592   90.9550    5.3998 O.2     1  UNL1       -0.2264
     37 H          60.2295   90.7782    5.6744 H       1  UNL1        0.1528
     38 O          58.5440   92.2789    4.0538 O.3     1  UNL1       -0.4306
     39 C          59.9814   92.5840    3.7524 C.3     1  UNL1        0.2573
@<TRIPOS>BOND
     1    13    14    1
     2    14    12    1
     3    11    12    1
     4    11    16    1
     5    16    17    1
     6    17    18    1
     7    18    19    1
     8    19    20    1
     9    20    21    1
    10    21    22    1
    11    11     1    1
    12     1     2   am
    13     2     3    2
    14     2     4   am
    15     4     5    1
    16     5     6    1
    17     6     7    1
    18     8     7    1
    19     8    23    1
    20    23    31    1
    21    31    32    1
    22    32    33    1
    23    33    34    1
    24    34    35   am
    25    35    36    2
    26    35    38    1
    27    38    39    1
    28    23    24    1
    29    24    25   ar
    30    25    26   ar
    31    26    27   ar
    32    27    28   ar
    33    28    29    1
    34    28    30   ar
    35     8     9    1
    36    22    17    1
    37     9     4    1
    38    30    24   ar
    39    14    15    1
    40     1    10    1
    41    34    37    1
@<TRIPOS>MOLECULE
*****
 39 41 0 0 0
SMALL
GASTEIGER

@<TRIPOS>ATOM
      1 N          62.7936   82.7470   12.0122 N.am    1  UNL1       -0.2890
      2 C          62.4018   84.1932   12.0841 C.2     1  UNL1        0.3040
      3 O          61.9749   84.7904   13.3922 O.2     1  UNL1       -0.2526
      4 N          62.4370   85.0421   10.8480 N.am    1  UNL1       -0.2641
      5 C          62.8640   84.4448    9.5399 C.3     1  UNL1        0.0949
      6 C          62.8992   85.2937    8.3037 C.3     1  UNL1        0.0217
      7 C          62.5074   86.7399    8.3756 C.3     1  UNL1        0.0062
      8 C          62.0805   87.3372    9.6837 C.3     1  UNL1        0.0514
      9 C          62.0453   86.4882   10.9198 C.3     1  UNL1        0.0977
     10 H          63.0739   82.3550   11.1537 H       1  UNL1        0.1510
     11 C          62.7584   81.8981   13.2484 C.3     1  UNL1        0.0887
     12 C          61.7597   80.7850   13.3657 C.3     1  UNL1        0.0884
     13 C          59.3497   80.3312   14.2232 C.3     1  UNL1        0.0859
     14 N          60.7534   80.7944   14.4779 N.3     1  UNL1       -0.2949
     15 H          61.1286   80.2031   15.2195 H       1  UNL1        0.1233
     16 C          63.7219   82.1622   14.3672 C.3     1  UNL1        0.0210
     17 C          63.8474   83.5435   14.9387 C.3     1  UNL1        0.0017
     18 C          64.9367   84.4570   14.4603 C.3     1  UNL1        0.0001
     19 C          65.0620   85.8381   15.0318 C.3     1  UNL1        0.0000
     20 C          64.0981   86.3058   16.0816 C.3     1  UNL1        0.0000
     21 C          63.0088   85.3923   16.5600 C.3     1  UNL1        0.0000
     22 C          62.8835   84.0111   15.9885 C.3     1  UNL1        0.0001
     23 C          61.6887   88.7833    9.7555 C.3     1  UNL1        0.1391
     24 C          62.5204   89.7471   10.5489 C.ar    1  UNL1        0.0054
     25 C          63.0255   91.0058    9.9082 C.ar    1  UNL1       -0.0019
     26 C          63.8572   91.9696   10.7016 C.ar    1  UNL1        0.0006
     27 C          64.1837   91.6747   12.1356 C.ar    1  UNL1        0.0114
     28 C          63.6785   90.4160   12.7763 C.ar    1  UNL1        0.0574
     29 CL         64.0050   90.1211   14.2103 Cl      1  UNL1       -0.0823
     30 C          62.8469   89.4522   11.9830 C.ar    1  UNL1        0.0095
     31 O          60.4652   89.2657    9.0340 O.3     1  UNL1       -0.3500
     32 C          59.8313   88.4100    7.9777 C.3     1  UNL1        0.1638
     33 C          59.1021   89.0488    6.8330 C.3     1  UNL1        0.1247
     34 N          59.6242   90.3169    6.2252 N.am    1  UNL1       -0.2681
     35 C          58.6938   91.2336    5.4877 C.2     1  UNL1        0.4018
     36 O          57.2413   90.8823    5.3580 O.2     1  UNL1       -0.2264
     37 H          60.5775   90.5474    6.3103 H       1  UNL1        0.1528
     38 O          59.2159   92.5017    4.8798 O.3     1  UNL1       -0.4306
     39 C          59.4507   92.5831    3.4006 C.3     1  UNL1        0.2573
@<TRIPOS>BOND
     1    13    14    1
     2    14    12    1
     3    11    12    1
     4    11    16    1
     5    16    17    1
     6    17    18    1
     7    18    19    1
     8    19    20    1
     9    20    21    1
    10    21    22    1
    11    11     1    1
    12     1     2   am
    13     2     3    2
    14     2     4   am
    15     4     5    1
    16     5     6    1
    17     6     7    1
    18     8     7    1
    19     8    23    1
    20    23    31    1
    21    31    32    1
    22    32    33    1
    23    33    34    1
    24    34    35   am
    25    35    36    2
    26    35    38    1
    27    38    39    1
    28    23    24    1
    29    24    25   ar
    30    25    26   ar
    31    26    27   ar
    32    27    28   ar
    33    28    29    1
    34    28    30   ar
    35     8     9    1
    36    22    17    1
    37     9     4    1
    38    30    24   ar
    39    14    15    1
    40     1    10    1
    41    34    37    1
@<TRIPOS>MOLECULE
*****
 39 41 0 0 0
SMALL
GASTEIGER

@<TRIPOS>ATOM
      1 N          64.4136   92.0336   13.7069 N.am    1  UNL1       -0.2890
      2 C          64.3109   90.5580   13.4574 C.2     1  UNL1        0.3040
      3 O          65.2446   89.6129   14.1536 O.2     1  UNL1       -0.2526
      4 N          63.2745   90.0277   12.5116 N.am    1  UNL1       -0.2641
      5 C          62.3407   90.9730   11.8153 C.3     1  UNL1        0.0949
      6 C          61.3043   90.4427   10.8695 C.3     1  UNL1        0.0217
      7 C          61.2016   88.9671   10.6199 C.3     1  UNL1        0.0062
      8 C          62.1353   88.0219   11.3162 C.3     1  UNL1        0.0514
      9 C          63.1717   88.5522   12.2620 C.3     1  UNL1        0.0977
     10 H          63.8007   92.6540   13.2500 H       1  UNL1        0.1510
     11 C          65.4500   92.5639   14.6527 C.3     1  UNL1        0.0887
     12 C          65.3090   92.3303   16.1277 C.3     1  UNL1        0.0884
     13 C          63.4434   90.6375   16.7628 C.3     1  UNL1        0.0859
     14 N          63.9591   92.0452   16.7162 N.3     1  UNL1       -0.2949
     15 H          63.9799   92.3831   17.6784 H       1  UNL1        0.1233
     16 C          66.6275   93.3278   14.1236 C.3     1  UNL1        0.0210
     17 C          66.8206   93.4777   12.6436 C.3     1  UNL1        0.0017
     18 C          66.3791   94.7339   11.9530 C.3     1  UNL1        0.0001
     19 C          66.5722   94.8837   10.4731 C.3     1  UNL1        0.0000
     20 C          67.2069   93.7773    9.6837 C.3     1  UNL1        0.0000
     21 C          67.6485   92.5211   10.3743 C.3     1  UNL1        0.0000
     22 C          67.4553   92.3713   11.8542 C.3     1  UNL1        0.0001
     23 C          62.0326   86.5464   11.0666 C.3     1  UNL1        0.1391
     24 C          61.8553   86.0328    9.6685 C.ar    1  UNL1        0.0054
     25 C          62.9653   85.2762    9.0010 C.ar    1  UNL1       -0.0019
     26 C          62.7880   84.7626    7.6029 C.ar    1  UNL1        0.0006
     27 C          61.5007   85.0056    6.8722 C.ar    1  UNL1        0.0114
     28 C          60.3907   85.7622    7.5397 C.ar    1  UNL1        0.0574
     29 CL         59.1034   86.0051    6.8090 Cl      1  UNL1       -0.0823
     30 C          60.5680   86.2758    8.9378 C.ar    1  UNL1        0.0095
     31 O          62.1071   85.5845   12.2152 O.3     1  UNL1       -0.3500
     32 C          63.4392   85.0812   12.6867 C.3     1  UNL1        0.1638
     33 C          63.8702   83.6818   12.3613 C.3     1  UNL1        0.1247
     34 N          63.0090   82.5200   12.7597 N.am    1  UNL1       -0.2681
     35 C          63.0355   82.0165   14.1724 C.2     1  UNL1        0.4018
     36 O          63.9232   82.6747   15.1867 O.2     1  UNL1       -0.2264
     37 H          62.4264   82.0880   12.0940 H       1  UNL1        0.1528
     38 O          62.1744   80.8547   14.5709 O.3     1  UNL1       -0.4306
     39 C          60.7651   80.7579   14.0664 C.3     1  UNL1        0.2573
@<TRIPOS>BOND
     1    13    14    1
     2    14    12    1
     3    11    12    1
     4    11    16    1
     5    16    17    1
     6    17    18    1
     7    18    19    1
     8    19    20    1
     9    20    21    1
    10    21    22    1
    11    11     1    1
    12     1     2   am
    13     2     3    2
    14     2     4   am
    15     4     5    1
    16     5     6    1
    17     6     7    1
    18     8     7    1
    19     8    23    1
    20    23    31    1
    21    31    32    1
    22    32    33    1
    23    33    34    1
    24    34    35   am
    25    35    36    2
    26    35    38    1
    27    38    39    1
    28    23    24    1
    29    24    25   ar
    30    25    26   ar
    31    26    27   ar
    32    27    28   ar
    33    28    29    1
    34    28    30   ar
    35     8     9    1
    36    22    17    1
    37     9     4    1
    38    30    24   ar
    39    14    15    1
    40     1    10    1
    41    34    37    1
@<TRIPOS>MOLECULE
*****
 39 41 0 0 0
SMALL
GASTEIGER

@<TRIPOS>ATOM
      1 N          64.4548   89.3881   14.9592 N.am    1  UNL1       -0.2890
      2 C          63.8668   88.5583   13.8566 C.2     1  UNL1        0.3040
      3 O          63.0676   89.2134   12.7694 O.2     1  UNL1       -0.2526
      4 N          64.0780   87.0733   13.8412 N.am    1  UNL1       -0.2641
      5 C          64.8772   86.4181   14.9285 C.3     1  UNL1        0.0949
      6 C          65.0884   84.9331   14.9131 C.3     1  UNL1        0.0217
      7 C          64.5003   84.1033   13.8105 C.3     1  UNL1        0.0062
      8 C          63.7012   84.7585   12.7233 C.3     1  UNL1        0.0514
      9 C          63.4900   86.2435   12.7387 C.3     1  UNL1        0.0977
     10 H          64.9794   88.9581   15.6727 H       1  UNL1        0.1510
     11 C          64.2436   90.8731   14.9745 C.3     1  UNL1        0.0887
     12 C          64.2553   91.6188   16.2760 C.3     1  UNL1        0.0884
     13 C          66.6087   92.7163   16.3568 C.3     1  UNL1        0.0859
     14 N          65.1157   92.8372   16.4345 N.3     1  UNL1       -0.2949
     15 H          64.8350   93.4928   15.7053 H       1  UNL1        0.1233
     16 C          64.0208   91.6122   13.6885 C.3     1  UNL1        0.0210
     17 C          65.1784   91.9014   12.7793 C.3     1  UNL1        0.0017
     18 C          64.9313   92.3854   11.3813 C.3     1  UNL1        0.0001
     19 C          66.0889   92.6746   10.4722 C.3     1  UNL1        0.0000
     20 C          67.4935   92.4797   10.9612 C.3     1  UNL1        0.0000
     21 C          67.7405   91.9957   12.3593 C.3     1  UNL1        0.0000
     22 C          66.5830   91.7066   13.2683 C.3     1  UNL1        0.0001
     23 C          63.1132   83.9287   11.6208 C.3     1  UNL1        0.1391
     24 C          62.8731   82.4631   11.8315 C.ar    1  UNL1        0.0054
     25 C          62.4390   81.9599   13.1763 C.ar    1  UNL1       -0.0019
     26 C          62.1989   80.4943   13.3870 C.ar    1  UNL1        0.0006
     27 C          62.3930   79.5319   12.2530 C.ar    1  UNL1        0.0114
     28 C          62.8271   80.0350   10.9082 C.ar    1  UNL1        0.0574
     29 CL         63.0211   79.0726    9.7742 Cl      1  UNL1       -0.0823
     30 C          63.0672   81.5006   10.6974 C.ar    1  UNL1        0.0095
     31 O          62.7652   84.5644   10.3075 O.3     1  UNL1       -0.3500
     32 C          61.7405   85.6584   10.2519 C.3     1  UNL1        0.1638
     33 C          62.0294   86.9187    9.4916 C.3     1  UNL1        0.1247
     34 N          61.7774   88.2533   10.1285 N.am    1  UNL1       -0.2681
     35 C          60.6088   89.0850    9.6896 C.2     1  UNL1        0.4018
     36 O          59.6922   88.5823    8.6140 O.2     1  UNL1       -0.2264
     37 H          62.3790   88.5833   10.8345 H       1  UNL1        0.1528
     38 O          60.3568   90.4196   10.3265 O.3     1  UNL1       -0.4306
     39 C          59.4263   90.5279   11.4979 C.3     1  UNL1        0.2573
@<TRIPOS>BOND
     1    13    14    1
     2    14    12    1
     3    11    12    1
     4    11    16    1
     5    16    17    1
     6    17    18    1
     7    18    19    1
     8    19    20    1
     9    20    21    1
    10    21    22    1
    11    11     1    1
    12     1     2   am
    13     2     3    2
    14     2     4   am
    15     4     5    1
    16     5     6    1
    17     6     7    1
    18     8     7    1
    19     8    23    1
    20    23    31    1
    21    31    32    1
    22    32    33    1
    23    33    34    1
    24    34    35   am
    25    35    36    2
    26    35    38    1
    27    38    39    1
    28    23    24    1
    29    24    25   ar
    30    25    26   ar
    31    26    27   ar
    32    27    28   ar
    33    28    29    1
    34    28    30   ar
    35     8     9    1
    36    22    17    1
    37     9     4    1
    38    30    24   ar
    39    14    15    1
    40     1    10    1
    41    34    37    1
