@<TRIPOS>MOLECULE
*****
 30 32 0 0 0
SMALL
GASTEIGER

@<TRIPOS>ATOM
      1 C          63.2329   89.3559   16.1947 C.3     1  UNL1        0.0521
      2 C          63.5433   89.9672   14.8605 C.ar    1  UNL1        0.0606
      3 C          62.7472   89.5734   13.6517 C.ar    1  UNL1        0.0290
      4 C          63.0575   90.1846   12.3175 C.ar    1  UNL1        0.0475
      5 C          64.1640   91.1896   12.1921 C.ar    1  UNL1        0.0309
      6 C          64.4744   91.8008   10.8579 C.ar    1  UNL1        0.0027
      7 C          65.5808   92.8058   10.7325 C.ar    1  UNL1        0.0003
      8 C          66.3769   93.1995   11.9413 C.ar    1  UNL1        0.0060
      9 C          66.0666   92.5884   13.2755 C.ar    1  UNL1        0.0708
     10 C          64.9601   91.5834   13.4009 C.ar    1  UNL1        0.0864
     11 N          64.6497   90.9721   14.7351 N.ar    1  UNL1       -0.2494
     12 C          66.8627   92.9821   14.4843 C.2     1  UNL1        0.2442
     13 N          66.1720   93.2065   15.7967 N.am    1  UNL1       -0.3253
     14 O          68.3494   93.1516   14.3806 O.2     1  UNL1       -0.2703
     15 H          65.1962   93.0953   15.8648 H       1  UNL1        0.1453
     16 H          66.6945   93.4649   16.5901 H       1  UNL1        0.1453
     17 N          62.2614   89.7908   11.1088 N.pl3   1  UNL1       -0.3289
     18 H          61.7773   90.4760   10.5935 H       1  UNL1        0.1471
     19 C          62.2028   88.3532   10.6850 C.3     1  UNL1        0.1165
     20 C          61.2629   87.9302    9.5952 C.ar    1  UNL1        0.0288
     21 C          60.2204   88.8841    9.0917 C.ar    1  UNL1        0.1377
     22 F          60.1180   90.2609    9.6780 F       1  UNL1       -0.2045
     23 C          59.2805   88.4611    8.0020 C.ar    1  UNL1        0.0294
     24 C          59.3830   87.0842    7.4157 C.ar    1  UNL1        0.0022
     25 C          60.4253   86.1303    7.9192 C.ar    1  UNL1        0.0037
     26 C          61.3653   86.5533    9.0090 C.ar    1  UNL1        0.0712
     27 C          62.4077   85.5994    9.5124 C.3     1  UNL1        0.4184
     28 F          63.4501   84.6455   10.0159 F       1  UNL1       -0.1659
     29 F          61.5109   85.2217   10.6539 F       1  UNL1       -0.1659
     30 F          63.3046   85.9771    8.3710 F       1  UNL1       -0.1659
@<TRIPOS>BOND
     1     1     2    1
     2     2     3   ar
     3     3     4   ar
     4     4    17    1
     5    17    19    1
     6    19    20    1
     7    20    21   ar
     8    21    22    1
     9    21    23   ar
    10    23    24   ar
    11    24    25   ar
    12    25    26   ar
    13    26    27    1
    14    27    28    1
    15    27    29    1
    16    27    30    1
    17     4     5   ar
    18     5     6   ar
    19     6     7   ar
    20     7     8   ar
    21     8     9   ar
    22     9    12    1
    23    12    13   am
    24    12    14    2
    25     9    10   ar
    26    10    11   ar
    27    11     2   ar
    28    26    20   ar
    29    10     5   ar
    30    17    18    1
    31    13    15    1
    32    13    16    1
@<TRIPOS>MOLECULE
*****
 30 32 0 0 0
SMALL
GASTEIGER

@<TRIPOS>ATOM
      1 C          66.0565   93.2970   10.1013 C.3     1  UNL1        0.0521
      2 C          65.2453   92.4262   11.0145 C.ar    1  UNL1        0.0606
      3 C          64.0603   91.6778   10.4801 C.ar    1  UNL1        0.0290
      4 C          63.2491   90.8071   11.3932 C.ar    1  UNL1        0.0475
      5 C          63.6230   90.6847   12.8408 C.ar    1  UNL1        0.0309
      6 C          62.8118   89.8140   13.7539 C.ar    1  UNL1        0.0027
      7 C          63.1857   89.6916   15.2013 C.ar    1  UNL1        0.0003
      8 C          64.3708   90.4400   15.7357 C.ar    1  UNL1        0.0060
      9 C          65.1820   91.3107   14.8226 C.ar    1  UNL1        0.0708
     10 C          64.8081   91.4331   13.3751 C.ar    1  UNL1        0.0864
     11 N          65.6193   92.3038   12.4620 N.ar    1  UNL1       -0.2494
     12 C          66.3671   92.0591   15.3569 C.2     1  UNL1        0.2442
     13 N          66.1785   93.1054   16.4150 N.am    1  UNL1       -0.3253
     14 O          67.7407   91.7611   14.8332 O.2     1  UNL1       -0.2703
     15 H          65.2769   93.3010   16.7588 H       1  UNL1        0.1453
     16 H          66.9563   93.5966   16.7657 H       1  UNL1        0.1453
     17 N          62.0640   90.0587   10.8589 N.pl3   1  UNL1       -0.3289
     18 H          61.1792   90.4897   10.8359 H       1  UNL1        0.1471
     19 C          62.2271   88.6538   10.3595 C.3     1  UNL1        0.1165
     20 C          61.2286   88.0784    9.3993 C.ar    1  UNL1        0.0288
     21 C          60.1632   88.9549    8.8104 C.ar    1  UNL1        0.1377
     22 F          60.0963   90.4066    9.1817 F       1  UNL1       -0.2045
     23 C          59.1648   88.3795    7.8501 C.ar    1  UNL1        0.0294
     24 C          59.2317   86.9277    7.4788 C.ar    1  UNL1        0.0022
     25 C          60.2971   86.0513    8.0677 C.ar    1  UNL1        0.0037
     26 C          61.2956   86.6267    9.0280 C.ar    1  UNL1        0.0712
     27 C          62.3610   85.7502    9.6169 C.3     1  UNL1        0.4184
     28 F          63.4264   84.8738   10.2057 F       1  UNL1       -0.1659
     29 F          61.4714   85.4558   10.7882 F       1  UNL1       -0.1659
     30 F          63.2506   86.0446    8.4456 F       1  UNL1       -0.1659
@<TRIPOS>BOND
     1     1     2    1
     2     2     3   ar
     3     3     4   ar
     4     4    17    1
     5    17    19    1
     6    19    20    1
     7    20    21   ar
     8    21    22    1
     9    21    23   ar
    10    23    24   ar
    11    24    25   ar
    12    25    26   ar
    13    26    27    1
    14    27    28    1
    15    27    29    1
    16    27    30    1
    17     4     5   ar
    18     5     6   ar
    19     6     7   ar
    20     7     8   ar
    21     8     9   ar
    22     9    12    1
    23    12    13   am
    24    12    14    2
    25     9    10   ar
    26    10    11   ar
    27    11     2   ar
    28    26    20   ar
    29    10     5   ar
    30    17    18    1
    31    13    15    1
    32    13    16    1
@<TRIPOS>MOLECULE
*****
 30 32 0 0 0
SMALL
GASTEIGER

@<TRIPOS>ATOM
      1 C          63.2739   89.2805   16.4612 C.3     1  UNL1        0.0521
      2 C          63.6338   89.9039   15.1452 C.ar    1  UNL1        0.0606
      3 C          62.9467   89.4549   13.8897 C.ar    1  UNL1        0.0290
      4 C          63.3066   90.0783   12.5738 C.ar    1  UNL1        0.0475
      5 C          64.3537   91.1508   12.5133 C.ar    1  UNL1        0.0309
      6 C          64.7136   91.7742   11.1973 C.ar    1  UNL1        0.0027
      7 C          65.7606   92.8466   11.1368 C.ar    1  UNL1        0.0003
      8 C          66.4476   93.2956   12.3923 C.ar    1  UNL1        0.0060
      9 C          66.0877   92.6722   13.7083 C.ar    1  UNL1        0.0708
     10 C          65.0408   91.5998   13.7688 C.ar    1  UNL1        0.0864
     11 N          64.6808   90.9763   15.0848 N.ar    1  UNL1       -0.2494
     12 C          66.7748   93.1212   14.9638 C.2     1  UNL1        0.2442
     13 N          66.0333   93.1158   16.2676 N.am    1  UNL1       -0.3253
     14 O          68.2035   93.5756   14.9155 O.2     1  UNL1       -0.2703
     15 H          65.0955   92.8176   16.2993 H       1  UNL1        0.1453
     16 H          66.4842   93.4105   17.0916 H       1  UNL1        0.1453
     17 N          62.6195   89.6293   11.3183 N.pl3   1  UNL1       -0.3289
     18 H          62.2922   90.2951   10.6712 H       1  UNL1        0.1471
     19 C          62.4312   88.1658   11.0487 C.3     1  UNL1        0.1165
     20 C          61.4521   87.7153   10.0054 C.ar    1  UNL1        0.0288
     21 C          61.8232   86.6174    9.0529 C.ar    1  UNL1        0.1377
     22 F          63.1733   85.9701    9.1438 F       1  UNL1       -0.2045
     23 C          60.8442   86.1668    8.0096 C.ar    1  UNL1        0.0294
     24 C          59.4940   86.8142    7.9188 C.ar    1  UNL1        0.0022
     25 C          59.1230   87.9120    8.8712 C.ar    1  UNL1        0.0037
     26 C          60.1021   88.3625    9.9145 C.ar    1  UNL1        0.0712
     27 C          59.7310   89.4604   10.8669 C.3     1  UNL1        0.4184
     28 F          59.3599   90.5582   11.8193 F       1  UNL1       -0.1659
     29 F          60.0650   90.4815    9.8201 F       1  UNL1       -0.1659
     30 F          59.3971   88.4394   11.9137 F       1  UNL1       -0.1659
@<TRIPOS>BOND
     1     1     2    1
     2     2     3   ar
     3     3     4   ar
     4     4    17    1
     5    17    19    1
     6    19    20    1
     7    20    21   ar
     8    21    22    1
     9    21    23   ar
    10    23    24   ar
    11    24    25   ar
    12    25    26   ar
    13    26    27    1
    14    27    28    1
    15    27    29    1
    16    27    30    1
    17     4     5   ar
    18     5     6   ar
    19     6     7   ar
    20     7     8   ar
    21     8     9   ar
    22     9    12    1
    23    12    13   am
    24    12    14    2
    25     9    10   ar
    26    10    11   ar
    27    11     2   ar
    28    26    20   ar
    29    10     5   ar
    30    17    18    1
    31    13    15    1
    32    13    16    1
@<TRIPOS>MOLECULE
*****
 30 32 0 0 0
SMALL
GASTEIGER

@<TRIPOS>ATOM
      1 C          61.2690   86.0343    9.4388 C.3     1  UNL1        0.0521
      2 C          62.0022   85.8994   10.7405 C.ar    1  UNL1        0.0606
      3 C          62.5138   87.1218   11.4434 C.ar    1  UNL1        0.0290
      4 C          63.2469   86.9869   12.7450 C.ar    1  UNL1        0.0475
      5 C          63.4685   85.6296   13.3439 C.ar    1  UNL1        0.0309
      6 C          64.2016   85.4947   14.6455 C.ar    1  UNL1        0.0027
      7 C          64.4232   84.1374   15.2443 C.ar    1  UNL1        0.0003
      8 C          63.9116   82.9150   14.5414 C.ar    1  UNL1        0.0060
      9 C          63.1785   83.0498   13.2398 C.ar    1  UNL1        0.0708
     10 C          62.9569   84.4072   12.6410 C.ar    1  UNL1        0.0864
     11 N          62.2238   84.5421   11.3393 N.ar    1  UNL1       -0.2494
     12 C          62.6669   81.8274   12.5369 C.2     1  UNL1        0.2442
     13 N          63.0894   81.5413   11.1264 N.am    1  UNL1       -0.3253
     14 O          61.7329   80.8911   13.2446 O.2     1  UNL1       -0.2703
     15 H          63.7024   82.1559   10.6619 H       1  UNL1        0.1453
     16 H          62.7536   80.7390   10.6651 H       1  UNL1        0.1453
     17 N          63.7584   88.2094   13.4479 N.pl3   1  UNL1       -0.3289
     18 H          64.5294   88.1409   14.0562 H       1  UNL1        0.1471
     19 C          63.0953   89.5360   13.2238 C.3     1  UNL1        0.1165
     20 C          63.8460   90.6452   12.5486 C.ar    1  UNL1        0.0288
     21 C          64.9923   91.3111   13.2507 C.ar    1  UNL1        0.1377
     22 F          65.3877   90.8676   14.6280 F       1  UNL1       -0.2045
     23 C          65.7430   92.4203   12.5754 C.ar    1  UNL1        0.0294
     24 C          65.3475   92.8637   11.1981 C.ar    1  UNL1        0.0022
     25 C          64.2013   92.1979   10.4960 C.ar    1  UNL1        0.0037
     26 C          63.4506   91.0886   11.1713 C.ar    1  UNL1        0.0712
     27 C          62.3043   90.4228   10.4692 C.3     1  UNL1        0.4184
     28 F          61.1581   89.7570    9.7672 F       1  UNL1       -0.1659
     29 F          63.2715   89.6036    9.6671 F       1  UNL1       -0.1659
     30 F          61.3372   91.2420   11.2713 F       1  UNL1       -0.1659
@<TRIPOS>BOND
     1     1     2    1
     2     2     3   ar
     3     3     4   ar
     4     4    17    1
     5    17    19    1
     6    19    20    1
     7    20    21   ar
     8    21    22    1
     9    21    23   ar
    10    23    24   ar
    11    24    25   ar
    12    25    26   ar
    13    26    27    1
    14    27    28    1
    15    27    29    1
    16    27    30    1
    17     4     5   ar
    18     5     6   ar
    19     6     7   ar
    20     7     8   ar
    21     8     9   ar
    22     9    12    1
    23    12    13   am
    24    12    14    2
    25     9    10   ar
    26    10    11   ar
    27    11     2   ar
    28    26    20   ar
    29    10     5   ar
    30    17    18    1
    31    13    15    1
    32    13    16    1
@<TRIPOS>MOLECULE
*****
 30 32 0 0 0
SMALL
GASTEIGER

@<TRIPOS>ATOM
      1 C          67.1685   92.9496   16.1284 C.3     1  UNL1        0.0521
      2 C          66.3334   92.4858   14.9719 C.ar    1  UNL1        0.0606
      3 C          65.4627   91.2727   15.1144 C.ar    1  UNL1        0.0290
      4 C          64.6275   90.8088   13.9580 C.ar    1  UNL1        0.0475
      5 C          64.6630   91.5581   12.6590 C.ar    1  UNL1        0.0309
      6 C          63.8278   91.0942   11.5026 C.ar    1  UNL1        0.0027
      7 C          63.8634   91.8435   10.2036 C.ar    1  UNL1        0.0003
      8 C          64.7340   93.0566   10.0611 C.ar    1  UNL1        0.0060
      9 C          65.5692   93.5204   11.2175 C.ar    1  UNL1        0.0708
     10 C          65.5337   92.7712   12.5164 C.ar    1  UNL1        0.0864
     11 N          66.3689   93.2350   13.6729 N.ar    1  UNL1       -0.2494
     12 C          66.4399   94.7335   11.0749 C.2     1  UNL1        0.2442
     13 N          66.0647   96.0113   11.7651 N.am    1  UNL1       -0.3253
     14 O          67.6857   94.6689   10.2421 O.2     1  UNL1       -0.2703
     15 H          65.2469   96.0538   12.3117 H       1  UNL1        0.1453
     16 H          66.6361   96.8075   11.6716 H       1  UNL1        0.1453
     17 N          63.7569   89.5957   14.1006 N.pl3   1  UNL1       -0.3289
     18 H          62.7883   89.6630   13.9375 H       1  UNL1        0.1471
     19 C          64.3619   88.2801   14.4917 C.3     1  UNL1        0.1165
     20 C          63.7761   87.4929   15.6262 C.ar    1  UNL1        0.0288
     21 C          63.2265   88.2038   16.8273 C.ar    1  UNL1        0.1377
     22 F          63.2628   89.7018   16.8939 F       1  UNL1       -0.2045
     23 C          62.6408   87.4166   17.9619 C.ar    1  UNL1        0.0294
     24 C          62.6046   85.9184   17.8953 C.ar    1  UNL1        0.0022
     25 C          63.1541   85.2076   16.6942 C.ar    1  UNL1        0.0037
     26 C          63.7399   85.9948   15.5596 C.ar    1  UNL1        0.0712
     27 C          64.2894   85.2839   14.3585 C.3     1  UNL1        0.4184
     28 F          64.8390   84.5730   13.1574 F       1  UNL1       -0.1659
     29 F          62.8973   85.0965   13.8324 F       1  UNL1       -0.1659
     30 F          65.6816   85.4712   14.8846 F       1  UNL1       -0.1659
@<TRIPOS>BOND
     1     1     2    1
     2     2     3   ar
     3     3     4   ar
     4     4    17    1
     5    17    19    1
     6    19    20    1
     7    20    21   ar
     8    21    22    1
     9    21    23   ar
    10    23    24   ar
    11    24    25   ar
    12    25    26   ar
    13    26    27    1
    14    27    28    1
    15    27    29    1
    16    27    30    1
    17     4     5   ar
    18     5     6   ar
    19     6     7   ar
    20     7     8   ar
    21     8     9   ar
    22     9    12    1
    23    12    13   am
    24    12    14    2
    25     9    10   ar
    26    10    11   ar
    27    11     2   ar
    28    26    20   ar
    29    10     5   ar
    30    17    18    1
    31    13    15    1
    32    13    16    1
@<TRIPOS>MOLECULE
*****
 30 32 0 0 0
SMALL
GASTEIGER

@<TRIPOS>ATOM
      1 C          62.6985   83.6276   11.3213 C.3     1  UNL1        0.0521
      2 C          62.4377   85.1000   11.2027 C.ar    1  UNL1        0.0606
      3 C          63.0954   86.0570   12.1523 C.ar    1  UNL1        0.0290
      4 C          62.8348   87.5294   12.0337 C.ar    1  UNL1        0.0475
      5 C          61.9164   88.0449   10.9655 C.ar    1  UNL1        0.0309
      6 C          61.6557   89.5172   10.8469 C.ar    1  UNL1        0.0027
      7 C          60.7373   90.0326    9.7788 C.ar    1  UNL1        0.0003
      8 C          60.0796   89.0757    8.8293 C.ar    1  UNL1        0.0060
      9 C          60.3403   87.6033    8.9478 C.ar    1  UNL1        0.0708
     10 C          61.2587   87.0879   10.0160 C.ar    1  UNL1        0.0864
     11 N          61.5194   85.6154   10.1346 N.ar    1  UNL1       -0.2494
     12 C          59.6826   86.6463    7.9983 C.2     1  UNL1        0.2442
     13 N          60.5082   85.6316    7.2643 N.am    1  UNL1       -0.3253
     14 O          58.1994   86.7040    7.7827 O.2     1  UNL1       -0.2703
     15 H          61.4818   85.5937    7.4058 H       1  UNL1        0.1453
     16 H          60.0766   85.0035    6.6411 H       1  UNL1        0.1453
     17 N          63.4924   88.4864   12.9832 N.pl3   1  UNL1       -0.3289
     18 H          63.3107   89.4515   12.9141 H       1  UNL1        0.1471
     19 C          64.4270   87.9729   14.0381 C.3     1  UNL1        0.1165
     20 C          63.8868   87.5154   15.3605 C.ar    1  UNL1        0.0288
     21 C          63.2759   88.5078   16.3051 C.ar    1  UNL1        0.1377
     22 F          63.2053   89.9576   15.9271 F       1  UNL1       -0.2045
     23 C          62.7357   88.0502   17.6275 C.ar    1  UNL1        0.0294
     24 C          62.8063   86.6003   18.0053 C.ar    1  UNL1        0.0022
     25 C          63.4172   85.6080   17.0608 C.ar    1  UNL1        0.0037
     26 C          63.9574   86.0655   15.7384 C.ar    1  UNL1        0.0712
     27 C          64.5683   85.0731   14.7939 C.3     1  UNL1        0.4184
     28 F          65.1792   84.0808   13.8494 F       1  UNL1       -0.1659
     29 F          63.2461   84.3756   14.6715 F       1  UNL1       -0.1659
     30 F          65.8906   85.7706   14.9163 F       1  UNL1       -0.1659
@<TRIPOS>BOND
     1     1     2    1
     2     2     3   ar
     3     3     4   ar
     4     4    17    1
     5    17    19    1
     6    19    20    1
     7    20    21   ar
     8    21    22    1
     9    21    23   ar
    10    23    24   ar
    11    24    25   ar
    12    25    26   ar
    13    26    27    1
    14    27    28    1
    15    27    29    1
    16    27    30    1
    17     4     5   ar
    18     5     6   ar
    19     6     7   ar
    20     7     8   ar
    21     8     9   ar
    22     9    12    1
    23    12    13   am
    24    12    14    2
    25     9    10   ar
    26    10    11   ar
    27    11     2   ar
    28    26    20   ar
    29    10     5   ar
    30    17    18    1
    31    13    15    1
    32    13    16    1
@<TRIPOS>MOLECULE
*****
 30 32 0 0 0
SMALL
GASTEIGER

@<TRIPOS>ATOM
      1 C          64.6186   86.2143   15.1205 C.3     1  UNL1        0.0521
      2 C          64.1030   87.2587   14.1753 C.ar    1  UNL1        0.0606
      3 C          64.2312   88.7126   14.5216 C.ar    1  UNL1        0.0290
      4 C          63.7156   89.7570   13.5765 C.ar    1  UNL1        0.0475
      5 C          63.0718   89.3476   12.2850 C.ar    1  UNL1        0.0309
      6 C          62.5562   90.3920   11.3398 C.ar    1  UNL1        0.0027
      7 C          61.9124   89.9826   10.0484 C.ar    1  UNL1        0.0003
      8 C          61.7842   88.5288    9.7021 C.ar    1  UNL1        0.0060
      9 C          62.2998   87.4844   10.6472 C.ar    1  UNL1        0.0708
     10 C          62.9436   87.8938   11.9386 C.ar    1  UNL1        0.0864
     11 N          63.4592   86.8493   12.8838 N.ar    1  UNL1       -0.2494
     12 C          62.1716   86.0305   10.3009 C.2     1  UNL1        0.2442
     13 N          61.7935   85.0378   11.3599 N.am    1  UNL1       -0.3253
     14 O          62.4214   85.5695    8.8956 O.2     1  UNL1       -0.2703
     15 H          61.6295   85.3404   12.2822 H       1  UNL1        0.1453
     16 H          61.7094   84.0836   11.1325 H       1  UNL1        0.1453
     17 N          63.8438   91.2108   13.9228 N.pl3   1  UNL1       -0.3289
     18 H          63.1781   91.6377   14.5092 H       1  UNL1        0.1471
     19 C          64.9863   92.0142   13.3758 C.3     1  UNL1        0.1165
     20 C          66.2100   92.2439   14.2122 C.ar    1  UNL1        0.0288
     21 C          66.0884   92.3621   15.7027 C.ar    1  UNL1        0.1377
     22 F          64.7430   92.2508   16.3565 F       1  UNL1       -0.2045
     23 C          67.3121   92.5918   16.5391 C.ar    1  UNL1        0.0294
     24 C          68.6575   92.7032   15.8852 C.ar    1  UNL1        0.0022
     25 C          68.7791   92.5849   14.3949 C.ar    1  UNL1        0.0037
     26 C          67.5554   92.3552   13.5584 C.ar    1  UNL1        0.0712
     27 C          67.6770   92.2370   12.0680 C.3     1  UNL1        0.4184
     28 F          67.7986   92.1187   10.5776 F       1  UNL1       -0.1659
     29 F          68.6271   91.0885   12.2366 F       1  UNL1       -0.1659
     30 F          66.7270   93.3854   11.8993 F       1  UNL1       -0.1659
@<TRIPOS>BOND
     1     1     2    1
     2     2     3   ar
     3     3     4   ar
     4     4    17    1
     5    17    19    1
     6    19    20    1
     7    20    21   ar
     8    21    22    1
     9    21    23   ar
    10    23    24   ar
    11    24    25   ar
    12    25    26   ar
    13    26    27    1
    14    27    28    1
    15    27    29    1
    16    27    30    1
    17     4     5   ar
    18     5     6   ar
    19     6     7   ar
    20     7     8   ar
    21     8     9   ar
    22     9    12    1
    23    12    13   am
    24    12    14    2
    25     9    10   ar
    26    10    11   ar
    27    11     2   ar
    28    26    20   ar
    29    10     5   ar
    30    17    18    1
    31    13    15    1
    32    13    16    1
@<TRIPOS>MOLECULE
*****
 30 32 0 0 0
SMALL
GASTEIGER

@<TRIPOS>ATOM
      1 C          66.9141   93.4600    9.6663 C.3     1  UNL1        0.0521
      2 C          66.1492   92.8728   10.8154 C.ar    1  UNL1        0.0606
      3 C          64.8019   92.2560   10.5823 C.ar    1  UNL1        0.0290
      4 C          64.0370   91.6689   11.7313 C.ar    1  UNL1        0.0475
      5 C          64.6193   91.6986   13.1134 C.ar    1  UNL1        0.0309
      6 C          63.8544   91.1115   14.2623 C.ar    1  UNL1        0.0027
      7 C          64.4368   91.1412   15.6443 C.ar    1  UNL1        0.0003
      8 C          65.7841   91.7580   15.8773 C.ar    1  UNL1        0.0060
      9 C          66.5490   92.3452   14.7284 C.ar    1  UNL1        0.0708
     10 C          65.9666   92.3154   13.3464 C.ar    1  UNL1        0.0864
     11 N          66.7316   92.9026   12.1973 N.ar    1  UNL1       -0.2494
     12 C          67.8963   92.9620   14.9614 C.2     1  UNL1        0.2442
     13 N          69.0932   92.4540   14.2136 N.am    1  UNL1       -0.3253
     14 O          68.0467   94.0869   15.9422 O.2     1  UNL1       -0.2703
     15 H          68.9946   91.7157   13.5698 H       1  UNL1        0.1453
     16 H          69.9775   92.8589   14.3665 H       1  UNL1        0.1453
     17 N          62.6897   91.0520   11.4983 N.pl3   1  UNL1       -0.3289
     18 H          61.9459   91.2473   12.1131 H       1  UNL1        0.1471
     19 C          62.4755   90.1377   10.3286 C.3     1  UNL1        0.1165
     20 C          62.1144   88.6999   10.5568 C.ar    1  UNL1        0.0288
     21 C          62.8282   87.9054   11.6102 C.ar    1  UNL1        0.1377
     22 F          63.9029   88.5488   12.4353 F       1  UNL1       -0.2045
     23 C          62.4670   86.4675   11.8384 C.ar    1  UNL1        0.0294
     24 C          61.3922   85.8241   11.0133 C.ar    1  UNL1        0.0022
     25 C          60.6785   86.6186    9.9600 C.ar    1  UNL1        0.0037
     26 C          61.0396   88.0564    9.7318 C.ar    1  UNL1        0.0712
     27 C          60.3259   88.8509    8.6784 C.3     1  UNL1        0.4184
     28 F          59.6122   89.6453    7.6251 F       1  UNL1       -0.1659
     29 F          59.9279   89.8631    9.7114 F       1  UNL1       -0.1659
     30 F          60.7239   87.8387    7.6454 F       1  UNL1       -0.1659
@<TRIPOS>BOND
     1     1     2    1
     2     2     3   ar
     3     3     4   ar
     4     4    17    1
     5    17    19    1
     6    19    20    1
     7    20    21   ar
     8    21    22    1
     9    21    23   ar
    10    23    24   ar
    11    24    25   ar
    12    25    26   ar
    13    26    27    1
    14    27    28    1
    15    27    29    1
    16    27    30    1
    17     4     5   ar
    18     5     6   ar
    19     6     7   ar
    20     7     8   ar
    21     8     9   ar
    22     9    12    1
    23    12    13   am
    24    12    14    2
    25     9    10   ar
    26    10    11   ar
    27    11     2   ar
    28    26    20   ar
    29    10     5   ar
    30    17    18    1
    31    13    15    1
    32    13    16    1
@<TRIPOS>MOLECULE
*****
 30 32 0 0 0
SMALL
GASTEIGER

@<TRIPOS>ATOM
      1 C          61.1641   88.2642    9.3094 C.3     1  UNL1        0.0521
      2 C          61.9468   88.2217   10.5884 C.ar    1  UNL1        0.0606
      3 C          62.3524   89.4990   11.2622 C.ar    1  UNL1        0.0290
      4 C          63.1351   89.4565   12.5411 C.ar    1  UNL1        0.0475
      5 C          63.5122   88.1368   13.1462 C.ar    1  UNL1        0.0309
      6 C          64.2949   88.0943   14.4251 C.ar    1  UNL1        0.0027
      7 C          64.6719   86.7746   15.0301 C.ar    1  UNL1        0.0003
      8 C          64.2663   85.4973   14.3563 C.ar    1  UNL1        0.0060
      9 C          63.4837   85.5398   13.0774 C.ar    1  UNL1        0.0708
     10 C          63.1066   86.8595   12.4724 C.ar    1  UNL1        0.0864
     11 N          62.3239   86.9020   11.1934 N.ar    1  UNL1       -0.2494
     12 C          63.0781   84.2625   12.4036 C.2     1  UNL1        0.2442
     13 N          63.2053   84.1265   10.9152 N.am    1  UNL1       -0.3253
     14 O          62.5452   83.1212   13.2181 O.2     1  UNL1       -0.2703
     15 H          63.5550   84.8756   10.3806 H       1  UNL1        0.1453
     16 H          62.9391   83.2882   10.4730 H       1  UNL1        0.1453
     17 N          63.5407   90.7338   13.2149 N.pl3   1  UNL1       -0.3289
     18 H          62.9648   91.1286   13.9090 H       1  UNL1        0.1471
     19 C          64.8237   91.4096   12.8312 C.3     1  UNL1        0.1165
     20 C          65.7574   91.9057   13.8952 C.ar    1  UNL1        0.0288
     21 C          65.3157   91.9309   15.3285 C.ar    1  UNL1        0.1377
     22 F          63.9402   91.4600   15.6978 F       1  UNL1       -0.2045
     23 C          66.2494   92.4270   16.3924 C.ar    1  UNL1        0.0294
     24 C          67.6249   92.8979   16.0231 C.ar    1  UNL1        0.0022
     25 C          68.0666   92.8727   14.5898 C.ar    1  UNL1        0.0037
     26 C          67.1328   92.3766   13.5259 C.ar    1  UNL1        0.0712
     27 C          67.5746   92.3514   12.0926 C.3     1  UNL1        0.4184
     28 F          68.0163   92.3262   10.6593 F       1  UNL1       -0.1659
     29 F          68.5168   91.2262   12.4027 F       1  UNL1       -0.1659
     30 F          66.6324   93.4766   11.7825 F       1  UNL1       -0.1659
@<TRIPOS>BOND
     1     1     2    1
     2     2     3   ar
     3     3     4   ar
     4     4    17    1
     5    17    19    1
     6    19    20    1
     7    20    21   ar
     8    21    22    1
     9    21    23   ar
    10    23    24   ar
    11    24    25   ar
    12    25    26   ar
    13    26    27    1
    14    27    28    1
    15    27    29    1
    16    27    30    1
    17     4     5   ar
    18     5     6   ar
    19     6     7   ar
    20     7     8   ar
    21     8     9   ar
    22     9    12    1
    23    12    13   am
    24    12    14    2
    25     9    10   ar
    26    10    11   ar
    27    11     2   ar
    28    26    20   ar
    29    10     5   ar
    30    17    18    1
    31    13    15    1
    32    13    16    1
