@<TRIPOS>MOLECULE
*****
 39 44 0 0 0
SMALL
GASTEIGER

@<TRIPOS>ATOM
      1 C          59.4146   88.8931    8.4380 C.ar    1  UNL1        0.2400
      2 N          59.8691   88.5031    9.8133 N.ar    1  UNL1       -0.2090
      3 C          61.0345   89.2051   10.4452 C.ar    1  UNL1        0.1037
      4 C          61.9702   90.3404    9.9807 C.ar    1  UNL1        0.0400
      5 C          60.9308   89.9830    8.9600 C.ar    1  UNL1        0.0237
      6 C          60.1253   89.9850    7.6947 C.ar    1  UNL1        0.1179
      7 N          59.6410   90.3463    6.3217 N.pl3   1  UNL1       -0.2104
      8 S          59.5305   91.0276    4.9900 S.O2    1  UNL1        0.0737
      9 O          58.5040   89.9553    5.2052 O.2     1  UNL1       -0.1499
     10 O          58.5953   90.8474    3.8312 O.2     1  UNL1       -0.1499
     11 C          59.9947   92.2207    3.6885 C.ar    1  UNL1        0.1253
     12 C          59.1214   92.1313    2.4723 C.ar    1  UNL1        0.0202
     13 C          59.3650   93.0419    1.3055 C.ar    1  UNL1        0.0015
     14 C          60.4819   94.0420    1.3549 C.ar    1  UNL1        0.0046
     15 C          61.3552   94.1313    2.5712 C.ar    1  UNL1        0.0547
     16 C          61.1116   93.2207    3.7379 C.ar    1  UNL1        0.0247
     17 C          62.4617   95.1440    2.5827 C.2     1  UNL1        0.2459
     18 O          62.2550   95.7511    1.2267 O.2     1  UNL1       -0.2701
     19 N          63.6362   95.9569    3.0406 N.am    1  UNL1       -0.2989
     20 C          64.7516   96.4819    3.8953 C.3     1  UNL1        0.1161
     21 C          65.6868   96.6620    5.0542 C.3     1  UNL1        0.1487
     22 N          66.3406   96.4779    6.3916 N.ar    1  UNL1       -0.2476
     23 C          66.6421   95.9494    7.7626 C.ar    1  UNL1        0.0982
     24 C          66.5587   95.1338    9.0187 C.ar    1  UNL1        0.0589
     25 C          67.6367   96.1738    8.9392 C.ar    1  UNL1        0.1232
     26 N          67.5261   96.8551    7.6075 N.ar    1  UNL1       -0.1676
     27 C          66.0993   94.1195   10.0238 C.ar    1  UNL1        0.1066
     28 C          67.1726   94.5453   10.9811 C.ar    1  UNL1        0.1198
     29 N          67.0505   93.7054   12.2179 N.ar    1  UNL1       -0.2234
     30 C          65.9017   92.7605   12.0249 C.ar    1  UNL1        0.1639
     31 C          64.7989   91.4062   12.6000 C.ar    1  UNL1        0.0404
     32 C          63.6286   90.6705   12.0176 C.ar    1  UNL1        0.0240
     33 C          63.1310   91.0186   10.6461 C.ar    1  UNL1        0.1030
     34 N          64.2873   91.9440   10.8841 N.ar    1  UNL1       -0.1637
     35 N          65.3138   93.0164   10.6689 N.ar    1  UNL1       -0.2106
     36 H          58.8959   89.7081    6.2396 H       1  UNL1        0.1739
     37 H          63.7543   96.5309    2.2495 H       1  UNL1        0.1498
     38 C          58.3525   86.7375    7.4504 C.3     1  UNL1        0.2543
     39 O          58.2493   88.1910    7.8062 O.3     1  UNL1       -0.4553
@<TRIPOS>BOND
     1    38    39    1
     2    39     1    1
     3     1     2   ar
     4     2     3   ar
     5     3     4   ar
     6     4     5   ar
     7     5     6   ar
     8     6     7    1
     9     7     8    1
    10     8     9    2
    11     8    10    2
    12     8    11    1
    13    11    12   ar
    14    12    13   ar
    15    13    14   ar
    16    14    15   ar
    17    15    16   ar
    18    15    17    1
    19    17    18    2
    20    17    19   am
    21    19    20    1
    22    20    21    1
    23    21    22    1
    24    22    23   ar
    25    23    24   ar
    26    24    25   ar
    27    25    26   ar
    28    24    27    1
    29    27    28   ar
    30    28    29   ar
    31    29    30   ar
    32    30    31   ar
    33    31    32   ar
    34    32    33   ar
    35    33    34   ar
    36    34    35   ar
    37     6     1   ar
    38    16    11   ar
    39    26    22   ar
    40    35    27   ar
    41    33     4    1
    42    35    30   ar
    43     7    36    1
    44    19    37    1
