@<TRIPOS>MOLECULE
*****
 25 28 0 0 0
SMALL
GASTEIGER

@<TRIPOS>ATOM
      1 C          64.1383   88.2706   14.7441 C.ar    1  UNL1        0.2947
      2 N          64.1088   87.0542   13.8669 N.ar    1  UNL1       -0.1844
      3 C          63.4895   85.9339   14.6487 C.ar    1  UNL1        0.2037
      4 N          63.1362   86.4578   16.0092 N.ar    1  UNL1       -0.0555
      5 O          63.5372   87.9021   16.0681 O.2     1  UNL1       -0.3292
      6 C          64.6773   92.6127   10.7516 C.3     1  UNL1        0.0311
      7 C          65.3210   92.7370   12.1008 C.ar    1  UNL1       -0.0188
      8 C          66.1074   93.9667   12.4462 C.ar    1  UNL1       -0.0044
      9 C          66.7511   94.0910   13.7953 C.ar    1  UNL1       -0.0016
     10 C          66.6084   92.9854   14.7991 C.ar    1  UNL1        0.0127
     11 C          67.2521   93.1098   16.1483 C.3     1  UNL1        0.0342
     12 C          65.8220   91.7557   14.4537 C.ar    1  UNL1        0.1412
     13 O          65.5108   90.5119   15.2321 O.2     1  UNL1       -0.4490
     14 C          64.6747   89.6189   14.3640 C.ar    1  UNL1        0.2010
     15 C          64.4692   90.3108   13.0491 C.ar    1  UNL1        0.0451
     16 C          65.1783   91.6315   13.1045 C.ar    1  UNL1        0.0335
     17 C          63.2631   84.5351   14.1566 C.ar    1  UNL1        0.0391
     18 C          63.9275   84.0668   12.8959 C.ar    1  UNL1        0.0032
     19 C          63.7011   82.6680   12.4038 C.ar    1  UNL1        0.0012
     20 C          62.8103   81.7375   13.1724 C.ar    1  UNL1        0.0140
     21 C          62.1460   82.2058   14.4331 C.ar    1  UNL1        0.0012
     22 C          62.3723   83.6045   14.9252 C.ar    1  UNL1        0.0032
     23 C          62.5839   80.3387   12.6804 C.2     1  UNL1        0.0729
     24 O          62.0733   79.2867   13.6197 O.co2   1  UNL1       -0.5446
     25 O          62.8682   79.9921   11.2489 O.co2   1  UNL1       -0.5446
@<TRIPOS>UNITY_ATOM_ATTR
24 1
charge -1
@<TRIPOS>BOND
     1     6     7    1
     2     7     8   ar
     3     8     9   ar
     4     9    10   ar
     5    10    11    1
     6    10    12   ar
     7    12    13   ar
     8    13    14   ar
     9    14     1    1
    10     1     2   ar
    11     2     3   ar
    12     3    17    1
    13    17    18   ar
    14    18    19   ar
    15    19    20   ar
    16    20    23    1
    17    23    24   ar
    18    23    25   ar
    19    20    21   ar
    20    21    22   ar
    21     3     4   ar
    22     4     5   ar
    23    14    15   ar
    24    15    16   ar
    25    16     7   ar
    26    16    12   ar
    27     5     1   ar
    28    22    17   ar
@<TRIPOS>MOLECULE
*****
 25 28 0 0 0
SMALL
GASTEIGER

@<TRIPOS>ATOM
      1 C          64.1407   88.2380   14.6982 C.ar    1  UNL1        0.2947
      2 N          64.1042   87.0117   13.8351 N.ar    1  UNL1       -0.1844
      3 C          63.5108   85.8948   14.6417 C.ar    1  UNL1        0.2037
      4 N          63.1806   86.4308   16.0032 N.ar    1  UNL1       -0.0555
      5 O          63.5700   87.8791   16.0381 O.2     1  UNL1       -0.3292
      6 C          67.1830   93.1480   16.0099 C.3     1  UNL1        0.0311
      7 C          66.5414   92.9888   14.6634 C.ar    1  UNL1       -0.0188
      8 C          66.6681   94.0770   13.6389 C.ar    1  UNL1       -0.0044
      9 C          66.0266   93.9177   12.2925 C.ar    1  UNL1       -0.0016
     10 C          65.2583   92.6702   11.9705 C.ar    1  UNL1        0.0127
     11 C          64.6168   92.5110   10.6239 C.3     1  UNL1        0.0342
     12 C          65.1317   91.5820   12.9950 C.ar    1  UNL1        0.1412
     13 O          64.4420   90.2503   12.9647 O.2     1  UNL1       -0.4490
     14 C          64.6574   89.5865   14.2925 C.ar    1  UNL1        0.2010
     15 C          65.4801   90.5080   15.1434 C.ar    1  UNL1        0.0451
     16 C          65.7732   91.7413   14.3415 C.ar    1  UNL1        0.0335
     17 C          63.2869   84.4888   14.1696 C.ar    1  UNL1        0.0391
     18 C          64.0702   83.9540   13.0075 C.ar    1  UNL1        0.0032
     19 C          63.8462   82.5479   12.5355 C.ar    1  UNL1        0.0012
     20 C          62.8390   81.6766   13.2256 C.ar    1  UNL1        0.0140
     21 C          62.0556   82.2113   14.3877 C.ar    1  UNL1        0.0012
     22 C          62.2796   83.6174   14.8597 C.ar    1  UNL1        0.0032
     23 C          62.6150   80.2705   12.7536 C.2     1  UNL1        0.0729
     24 O          62.2166   79.2055   13.7318 O.co2   1  UNL1       -0.5446
     25 O          62.7894   79.9295   11.3033 O.co2   1  UNL1       -0.5446
@<TRIPOS>UNITY_ATOM_ATTR
24 1
charge -1
@<TRIPOS>BOND
     1     6     7    1
     2     7     8   ar
     3     8     9   ar
     4     9    10   ar
     5    10    11    1
     6    10    12   ar
     7    12    13   ar
     8    13    14   ar
     9    14     1    1
    10     1     2   ar
    11     2     3   ar
    12     3    17    1
    13    17    18   ar
    14    18    19   ar
    15    19    20   ar
    16    20    23    1
    17    23    24   ar
    18    23    25   ar
    19    20    21   ar
    20    21    22   ar
    21     3     4   ar
    22     4     5   ar
    23    14    15   ar
    24    15    16   ar
    25    16     7   ar
    26    16    12   ar
    27     5     1   ar
    28    22    17   ar
@<TRIPOS>MOLECULE
*****
 25 28 0 0 0
SMALL
GASTEIGER

@<TRIPOS>ATOM
      1 C          63.2776   88.7785   12.4140 C.ar    1  UNL1        0.2947
      2 N          63.7055   87.3985   12.8170 N.ar    1  UNL1       -0.1844
      3 C          62.6482   86.4350   12.3656 C.ar    1  UNL1        0.2037
      4 N          61.5668   87.2196   11.6836 N.ar    1  UNL1       -0.0555
      5 O          61.9559   88.6680   11.7135 O.2     1  UNL1       -0.3292
      6 C          66.2482   92.2949   16.1417 C.3     1  UNL1        0.0311
      7 C          66.0574   92.6953   14.7088 C.ar    1  UNL1       -0.0188
      8 C          66.6205   93.9936   14.2115 C.ar    1  UNL1       -0.0044
      9 C          66.4298   94.3941   12.7787 C.ar    1  UNL1       -0.0016
     10 C          65.6758   93.4962   11.8429 C.ar    1  UNL1        0.0127
     11 C          65.4850   93.8967   10.4100 C.3     1  UNL1        0.0342
     12 C          65.1127   92.1979   12.3402 C.ar    1  UNL1        0.1412
     13 O          64.3306   91.1158   11.6567 O.2     1  UNL1       -0.4490
     14 C          64.0380   90.0465   12.6671 C.ar    1  UNL1        0.2010
     15 C          64.6393   90.4678   13.9752 C.ar    1  UNL1        0.0451
     16 C          65.3035   91.7974   13.7731 C.ar    1  UNL1        0.0335
     17 C          62.6687   84.9480   12.5617 C.ar    1  UNL1        0.0391
     18 C          62.5370   84.3714   13.9402 C.ar    1  UNL1        0.0032
     19 C          62.5575   82.8844   14.1362 C.ar    1  UNL1        0.0012
     20 C          62.7095   81.9740   12.9538 C.ar    1  UNL1        0.0140
     21 C          62.8411   82.5506   11.5753 C.ar    1  UNL1        0.0012
     22 C          62.8207   84.0376   11.3793 C.ar    1  UNL1        0.0032
     23 C          62.7300   80.4871   13.1499 C.2     1  UNL1        0.0729
     24 O          62.9330   79.9140   14.5211 O.co2   1  UNL1       -0.5446
     25 O          62.5473   79.5731   11.9745 O.co2   1  UNL1       -0.5446
@<TRIPOS>UNITY_ATOM_ATTR
24 1
charge -1
@<TRIPOS>BOND
     1     6     7    1
     2     7     8   ar
     3     8     9   ar
     4     9    10   ar
     5    10    11    1
     6    10    12   ar
     7    12    13   ar
     8    13    14   ar
     9    14     1    1
    10     1     2   ar
    11     2     3   ar
    12     3    17    1
    13    17    18   ar
    14    18    19   ar
    15    19    20   ar
    16    20    23    1
    17    23    24   ar
    18    23    25   ar
    19    20    21   ar
    20    21    22   ar
    21     3     4   ar
    22     4     5   ar
    23    14    15   ar
    24    15    16   ar
    25    16     7   ar
    26    16    12   ar
    27     5     1   ar
    28    22    17   ar
@<TRIPOS>MOLECULE
*****
 25 28 0 0 0
SMALL
GASTEIGER

@<TRIPOS>ATOM
      1 C          63.2622   88.8134   12.3892 C.ar    1  UNL1        0.2947
      2 N          63.6932   87.4376   12.8031 N.ar    1  UNL1       -0.1844
      3 C          62.6346   86.4691   12.3658 C.ar    1  UNL1        0.2037
      4 N          61.5492   87.2463   11.6816 N.ar    1  UNL1       -0.0555
      5 O          61.9372   88.6952   11.6961 O.2     1  UNL1       -0.3292
      6 C          65.4006   93.9441   10.3427 C.3     1  UNL1        0.0311
      7 C          65.6261   93.5424   11.7702 C.ar    1  UNL1       -0.0188
      8 C          66.3974   94.4422   12.6897 C.ar    1  UNL1       -0.0044
      9 C          66.6229   94.0406   14.1171 C.ar    1  UNL1       -0.0016
     10 C          66.0770   92.7390   14.6253 C.ar    1  UNL1        0.0127
     11 C          66.3026   92.3374   16.0529 C.3     1  UNL1        0.0342
     12 C          65.3057   91.8393   13.7059 C.ar    1  UNL1        0.1412
     13 O          64.6521   90.5064   13.9212 O.2     1  UNL1       -0.4490
     14 C          64.0227   90.0844   12.6267 C.ar    1  UNL1        0.2010
     15 C          64.2872   91.1563   11.6114 C.ar    1  UNL1        0.0451
     16 C          65.0802   92.2409   12.2783 C.ar    1  UNL1        0.0335
     17 C          62.6572   84.9840   12.5758 C.ar    1  UNL1        0.0391
     18 C          62.7459   84.0611   11.3967 C.ar    1  UNL1        0.0032
     19 C          62.7685   82.5759   11.6068 C.ar    1  UNL1        0.0012
     20 C          62.7025   82.0139   12.9959 C.ar    1  UNL1        0.0140
     21 C          62.6137   82.9368   14.1750 C.ar    1  UNL1        0.0012
     22 C          62.5911   84.4219   13.9650 C.ar    1  UNL1        0.0032
     23 C          62.7251   80.5289   13.2060 C.2     1  UNL1        0.0729
     24 O          62.5323   79.6036   12.0412 O.co2   1  UNL1       -0.5446
     25 O          62.9405   79.9692   14.5809 O.co2   1  UNL1       -0.5446
@<TRIPOS>UNITY_ATOM_ATTR
24 1
charge -1
@<TRIPOS>BOND
     1     6     7    1
     2     7     8   ar
     3     8     9   ar
     4     9    10   ar
     5    10    11    1
     6    10    12   ar
     7    12    13   ar
     8    13    14   ar
     9    14     1    1
    10     1     2   ar
    11     2     3   ar
    12     3    17    1
    13    17    18   ar
    14    18    19   ar
    15    19    20   ar
    16    20    23    1
    17    23    24   ar
    18    23    25   ar
    19    20    21   ar
    20    21    22   ar
    21     3     4   ar
    22     4     5   ar
    23    14    15   ar
    24    15    16   ar
    25    16     7   ar
    26    16    12   ar
    27     5     1   ar
    28    22    17   ar
@<TRIPOS>MOLECULE
*****
 25 28 0 0 0
SMALL
GASTEIGER

@<TRIPOS>ATOM
      1 C          62.6795   89.3225   12.2393 C.ar    1  UNL1        0.2947
      2 N          64.0595   89.8796   12.4276 N.ar    1  UNL1       -0.1844
      3 C          64.0853   90.6232   13.7301 C.ar    1  UNL1        0.2037
      4 N          62.7214   90.5257   14.3468 N.ar    1  UNL1       -0.0555
      5 O          61.8526   89.7218   13.4253 O.2     1  UNL1       -0.3292
      6 C          58.9113   88.5600    7.7333 C.3     1  UNL1        0.0311
      7 C          59.9947   87.5563    7.9959 C.ar    1  UNL1       -0.0188
      8 C          60.1291   86.3499    7.1147 C.ar    1  UNL1       -0.0044
      9 C          61.2123   85.3463    7.3772 C.ar    1  UNL1       -0.0016
     10 C          62.1614   85.5489    8.5210 C.ar    1  UNL1        0.0127
     11 C          63.2448   84.5452    8.7835 C.3     1  UNL1        0.0342
     12 C          62.0271   86.7553    9.4023 C.ar    1  UNL1        0.1412
     13 O          62.8092   87.2188   10.5953 O.2     1  UNL1       -0.4490
     14 C          62.2092   88.5090   11.0701 C.ar    1  UNL1        0.2010
     15 C          61.0563   88.8429   10.1705 C.ar    1  UNL1        0.0451
     16 C          60.9437   87.7590    9.1397 C.ar    1  UNL1        0.0335
     17 C          65.2675   91.3387   14.3136 C.ar    1  UNL1        0.0391
     18 C          65.2010   91.8822   15.7101 C.ar    1  UNL1        0.0032
     19 C          66.3833   92.5978   16.2935 C.ar    1  UNL1        0.0012
     20 C          67.6320   92.7698   15.4805 C.ar    1  UNL1        0.0140
     21 C          67.6985   92.2262   14.0840 C.ar    1  UNL1        0.0012
     22 C          66.5163   91.5107   13.5005 C.ar    1  UNL1        0.0032
     23 C          68.8142   93.4852   16.0638 C.2     1  UNL1        0.0729
     24 O          68.8086   94.9816   16.1686 O.co2   1  UNL1       -0.5446
     25 O          70.0021   92.7044   16.5425 O.co2   1  UNL1       -0.5446
@<TRIPOS>UNITY_ATOM_ATTR
24 1
charge -1
@<TRIPOS>BOND
     1     6     7    1
     2     7     8   ar
     3     8     9   ar
     4     9    10   ar
     5    10    11    1
     6    10    12   ar
     7    12    13   ar
     8    13    14   ar
     9    14     1    1
    10     1     2   ar
    11     2     3   ar
    12     3    17    1
    13    17    18   ar
    14    18    19   ar
    15    19    20   ar
    16    20    23    1
    17    23    24   ar
    18    23    25   ar
    19    20    21   ar
    20    21    22   ar
    21     3     4   ar
    22     4     5   ar
    23    14    15   ar
    24    15    16   ar
    25    16     7   ar
    26    16    12   ar
    27     5     1   ar
    28    22    17   ar
@<TRIPOS>MOLECULE
*****
 25 28 0 0 0
SMALL
GASTEIGER

@<TRIPOS>ATOM
      1 C          62.6417   89.3345   12.2476 C.ar    1  UNL1        0.2947
      2 N          64.0211   89.8955   12.4278 N.ar    1  UNL1       -0.1844
      3 C          64.0573   90.6252   13.7379 C.ar    1  UNL1        0.2037
      4 N          62.7002   90.5152   14.3674 N.ar    1  UNL1       -0.0555
      5 O          61.8253   89.7175   13.4463 O.2     1  UNL1       -0.3292
      6 C          63.1163   84.5362    8.8074 C.3     1  UNL1        0.0311
      7 C          62.0636   85.5684    8.5306 C.ar    1  UNL1       -0.0188
      8 C          61.1225   85.3891    7.3764 C.ar    1  UNL1       -0.0044
      9 C          60.0699   86.4212    7.0997 C.ar    1  UNL1       -0.0016
     10 C          59.9583   87.6327    7.9771 C.ar    1  UNL1        0.0127
     11 C          58.9056   88.6648    7.7003 C.3     1  UNL1        0.0342
     12 C          60.8994   87.8120    9.1313 C.ar    1  UNL1        0.1412
     13 O          61.0296   88.8946   10.1613 O.2     1  UNL1       -0.4490
     14 C          62.1627   88.5316   11.0747 C.ar    1  UNL1        0.2010
     15 C          62.7329   87.2246   10.6091 C.ar    1  UNL1        0.0451
     16 C          61.9521   86.7799    9.4081 C.ar    1  UNL1        0.0335
     17 C          65.2424   91.3395   14.3169 C.ar    1  UNL1        0.0391
     18 C          65.1739   91.9027   15.7054 C.ar    1  UNL1        0.0032
     19 C          66.3592   92.6170   16.2844 C.ar    1  UNL1        0.0012
     20 C          67.6128   92.7680   15.4748 C.ar    1  UNL1        0.0140
     21 C          67.6813   92.2048   14.0862 C.ar    1  UNL1        0.0012
     22 C          66.4962   91.4906   13.5072 C.ar    1  UNL1        0.0032
     23 C          68.7980   93.4823   16.0537 C.2     1  UNL1        0.0729
     24 O          69.9772   92.6989   16.5494 O.co2   1  UNL1       -0.5446
     25 O          68.8039   94.9800   16.1368 O.co2   1  UNL1       -0.5446
@<TRIPOS>UNITY_ATOM_ATTR
24 1
charge -1
@<TRIPOS>BOND
     1     6     7    1
     2     7     8   ar
     3     8     9   ar
     4     9    10   ar
     5    10    11    1
     6    10    12   ar
     7    12    13   ar
     8    13    14   ar
     9    14     1    1
    10     1     2   ar
    11     2     3   ar
    12     3    17    1
    13    17    18   ar
    14    18    19   ar
    15    19    20   ar
    16    20    23    1
    17    23    24   ar
    18    23    25   ar
    19    20    21   ar
    20    21    22   ar
    21     3     4   ar
    22     4     5   ar
    23    14    15   ar
    24    15    16   ar
    25    16     7   ar
    26    16    12   ar
    27     5     1   ar
    28    22    17   ar
@<TRIPOS>MOLECULE
*****
 25 28 0 0 0
SMALL
GASTEIGER

@<TRIPOS>ATOM
      1 C          62.5146   87.3462   11.9111 C.ar    1  UNL1        0.2947
      2 N          63.6406   88.3274   12.0506 N.ar    1  UNL1       -0.1844
      3 C          63.1353   89.6756   11.6298 C.ar    1  UNL1        0.2037
      4 N          61.6971   89.5276   11.2302 N.ar    1  UNL1       -0.0555
      5 O          61.3135   88.0879   11.4041 O.2     1  UNL1       -0.3292
      6 C          63.1712   81.7550   10.0691 C.3     1  UNL1        0.0311
      7 C          62.9519   82.0554   11.5223 C.ar    1  UNL1       -0.0188
      8 C          62.8976   80.9363   12.5196 C.ar    1  UNL1       -0.0044
      9 C          62.6783   81.2367   13.9727 C.ar    1  UNL1       -0.0016
     10 C          62.5132   82.6562   14.4286 C.ar    1  UNL1        0.0127
     11 C          62.2939   82.9565   15.8818 C.3     1  UNL1        0.0342
     12 C          62.5675   83.7753   13.4313 C.ar    1  UNL1        0.1412
     13 O          62.4388   85.2620   13.5831 O.2     1  UNL1       -0.4490
     14 C          62.5786   85.8805   12.2237 C.ar    1  UNL1        0.2010
     15 C          62.7937   84.7760   11.2318 C.ar    1  UNL1        0.0451
     16 C          62.7868   83.4749   11.9781 C.ar    1  UNL1        0.0335
     17 C          63.9289   90.9483   11.6117 C.ar    1  UNL1        0.0391
     18 C          64.6302   91.4126   12.8538 C.ar    1  UNL1        0.0032
     19 C          65.4238   92.6854   12.8356 C.ar    1  UNL1        0.0012
     20 C          65.5161   93.4939   11.5755 C.ar    1  UNL1        0.0140
     21 C          64.8148   93.0296   10.3335 C.ar    1  UNL1        0.0012
     22 C          64.0212   91.7568   10.3516 C.ar    1  UNL1        0.0032
     23 C          66.3096   94.7666   11.5574 C.2     1  UNL1        0.0729
     24 O          66.1221   95.7830   12.6445 O.co2   1  UNL1       -0.5446
     25 O          67.2908   95.0230   10.4521 O.co2   1  UNL1       -0.5446
@<TRIPOS>UNITY_ATOM_ATTR
24 1
charge -1
@<TRIPOS>BOND
     1     6     7    1
     2     7     8   ar
     3     8     9   ar
     4     9    10   ar
     5    10    11    1
     6    10    12   ar
     7    12    13   ar
     8    13    14   ar
     9    14     1    1
    10     1     2   ar
    11     2     3   ar
    12     3    17    1
    13    17    18   ar
    14    18    19   ar
    15    19    20   ar
    16    20    23    1
    17    23    24   ar
    18    23    25   ar
    19    20    21   ar
    20    21    22   ar
    21     3     4   ar
    22     4     5   ar
    23    14    15   ar
    24    15    16   ar
    25    16     7   ar
    26    16    12   ar
    27     5     1   ar
    28    22    17   ar
@<TRIPOS>MOLECULE
*****
 25 28 0 0 0
SMALL
GASTEIGER

@<TRIPOS>ATOM
      1 C          60.4354   87.9306    8.9653 C.ar    1  UNL1        0.2947
      2 N          60.8148   89.0473    8.0384 N.ar    1  UNL1       -0.1844
      3 C          59.6976   89.2331    7.0549 C.ar    1  UNL1        0.2037
      4 N          58.6277   88.2312    7.3739 N.ar    1  UNL1       -0.0555
      5 O          59.0838   87.4262    8.5546 O.2     1  UNL1       -0.3292
      6 C          62.5953   83.3442   12.0287 C.3     1  UNL1        0.0311
      7 C          62.9235   84.7507   12.4340 C.ar    1  UNL1       -0.0188
      8 C          63.8039   85.0028   13.6219 C.ar    1  UNL1       -0.0044
      9 C          64.1320   86.4091   14.0272 C.ar    1  UNL1       -0.0016
     10 C          63.5798   87.5635   13.2445 C.ar    1  UNL1        0.0127
     11 C          63.9080   88.9700   13.6499 C.3     1  UNL1        0.0342
     12 C          62.6994   87.3114   12.0565 C.ar    1  UNL1        0.1412
     13 O          62.0142   88.2414   11.0997 O.2     1  UNL1       -0.4490
     14 C          61.2626   87.4097   10.1031 C.ar    1  UNL1        0.2010
     15 C          61.4832   85.9657   10.4439 C.ar    1  UNL1        0.0451
     16 C          62.3713   85.9049   11.6513 C.ar    1  UNL1        0.0335
     17 C          59.6572   90.2433    5.9468 C.ar    1  UNL1        0.0391
     18 C          60.9253   90.6509    5.2569 C.ar    1  UNL1        0.0032
     19 C          60.8848   91.6612    4.1488 C.ar    1  UNL1        0.0012
     20 C          59.5765   92.2639    3.7307 C.ar    1  UNL1        0.0140
     21 C          58.3084   91.8564    4.4207 C.ar    1  UNL1        0.0012
     22 C          58.3488   90.8461    5.5287 C.ar    1  UNL1        0.0032
     23 C          59.5360   93.2741    2.6227 C.2     1  UNL1        0.0729
     24 O          59.0427   92.8768    1.2631 O.co2   1  UNL1       -0.5446
     25 O          59.9890   94.6818    2.8744 O.co2   1  UNL1       -0.5446
@<TRIPOS>UNITY_ATOM_ATTR
24 1
charge -1
@<TRIPOS>BOND
     1     6     7    1
     2     7     8   ar
     3     8     9   ar
     4     9    10   ar
     5    10    11    1
     6    10    12   ar
     7    12    13   ar
     8    13    14   ar
     9    14     1    1
    10     1     2   ar
    11     2     3   ar
    12     3    17    1
    13    17    18   ar
    14    18    19   ar
    15    19    20   ar
    16    20    23    1
    17    23    24   ar
    18    23    25   ar
    19    20    21   ar
    20    21    22   ar
    21     3     4   ar
    22     4     5   ar
    23    14    15   ar
    24    15    16   ar
    25    16     7   ar
    26    16    12   ar
    27     5     1   ar
    28    22    17   ar
@<TRIPOS>MOLECULE
*****
 25 28 0 0 0
SMALL
GASTEIGER

@<TRIPOS>ATOM
      1 C          62.6988   86.6909   12.2828 C.ar    1  UNL1        0.2947
      2 N          63.8103   87.5618   12.7888 N.ar    1  UNL1       -0.1844
      3 C          63.3778   88.9916   12.6519 C.ar    1  UNL1        0.2037
      4 N          61.9990   89.0043   12.0613 N.ar    1  UNL1       -0.0555
      5 O          61.5794   87.5823   11.8331 O.2     1  UNL1       -0.3292
      6 C          64.1294   81.6773    9.4716 C.3     1  UNL1        0.0311
      7 C          63.4257   81.6318   10.7955 C.ar    1  UNL1       -0.0188
      8 C          63.0798   80.3107   11.4159 C.ar    1  UNL1       -0.0044
      9 C          62.3761   80.2651   12.7398 C.ar    1  UNL1       -0.0016
     10 C          62.0183   81.5407   13.4433 C.ar    1  UNL1        0.0127
     11 C          61.3146   81.4951   14.7673 C.3     1  UNL1        0.0342
     12 C          62.3643   82.8618   12.8229 C.ar    1  UNL1        0.1412
     13 O          62.1403   84.2736   13.2777 O.2     1  UNL1       -0.4490
     14 C          62.7056   85.1916   12.2348 C.ar    1  UNL1        0.2010
     15 C          63.2789   84.3473   11.1355 C.ar    1  UNL1        0.0451
     16 C          63.0680   82.9074   11.4990 C.ar    1  UNL1        0.0335
     17 C          64.1827   90.1970   13.0378 C.ar    1  UNL1        0.0391
     18 C          64.3220   91.3437   12.0809 C.ar    1  UNL1        0.0032
     19 C          65.1269   92.5492   12.4669 C.ar    1  UNL1        0.0012
     20 C          65.7926   92.6080   13.8098 C.ar    1  UNL1        0.0140
     21 C          65.6533   91.4613   14.7668 C.ar    1  UNL1        0.0012
     22 C          64.8484   90.2559   14.3808 C.ar    1  UNL1        0.0032
     23 C          66.5975   93.8134   14.1958 C.2     1  UNL1        0.0729
     24 O          67.5165   93.7539   15.3798 O.co2   1  UNL1       -0.5446
     25 O          66.4833   95.0784   13.3977 O.co2   1  UNL1       -0.5446
@<TRIPOS>UNITY_ATOM_ATTR
24 1
charge -1
@<TRIPOS>BOND
     1     6     7    1
     2     7     8   ar
     3     8     9   ar
     4     9    10   ar
     5    10    11    1
     6    10    12   ar
     7    12    13   ar
     8    13    14   ar
     9    14     1    1
    10     1     2   ar
    11     2     3   ar
    12     3    17    1
    13    17    18   ar
    14    18    19   ar
    15    19    20   ar
    16    20    23    1
    17    23    24   ar
    18    23    25   ar
    19    20    21   ar
    20    21    22   ar
    21     3     4   ar
    22     4     5   ar
    23    14    15   ar
    24    15    16   ar
    25    16     7   ar
    26    16    12   ar
    27     5     1   ar
    28    22    17   ar
