@<TRIPOS>MOLECULE
*****
 31 35 0 0 0
SMALL
GASTEIGER

@<TRIPOS>ATOM
      1 C          63.4963   84.8581   13.2376 C.ar    1  UNL1        0.1389
      2 C          63.5461   86.3539   13.1381 C.ar    1  UNL1        0.0397
      3 C          62.8878   87.0512   11.9846 C.ar    1  UNL1        0.0350
      4 C          62.1798   86.2526   10.9306 C.ar    1  UNL1        0.0778
      5 C          62.1300   84.7568   11.0301 C.ar    1  UNL1        0.0219
      6 C          62.7883   84.0595   12.1836 C.ar    1  UNL1        0.0394
      7 N          61.5215   86.9499    9.7772 N.2     1  UNL1       -0.2641
      8 C          61.5713   88.4458    9.6777 C.3     1  UNL1        0.1696
      9 C          62.2794   89.2444   10.7317 C.2     1  UNL1        0.0908
     10 N          62.4921   90.7197   10.8994 N.am    1  UNL1       -0.1630
     11 C          63.2818   90.9342   12.1565 C.2     1  UNL1        0.3313
     12 O          63.7194   92.2589   12.7076 O.2     1  UNL1       -0.2501
     13 N          63.5572   89.5915   12.7657 N.am    1  UNL1       -0.2383
     14 C          62.9376   88.5471   11.8852 C.2     1  UNL1        0.0703
     15 C          62.7384   82.5636   12.2830 C.ar    1  UNL1        0.0526
     16 C          62.1105   81.7742   13.3932 C.ar    1  UNL1        0.1007
     17 C          61.4222   82.3420   14.5989 C.3     1  UNL1        0.0557
     18 N          62.2918   80.3172   13.0860 N.ar    1  UNL1       -0.0817
     19 O          63.0318   80.2061   11.7860 O.2     1  UNL1       -0.3581
     20 C          63.3078   81.5945   11.2897 C.ar    1  UNL1        0.1545
     21 C          64.0270   81.9511   10.0226 C.3     1  UNL1        0.0754
     22 C          63.8752   84.6070   15.7956 C.3     1  UNL1        0.2525
     23 O          64.1546   84.1608   14.3910 O.3     1  UNL1       -0.4714
     24 C          64.3185   89.3377   14.0330 C.3     1  UNL1        0.1038
     25 C          64.4048   87.9478   14.5905 C.3     1  UNL1        0.0268
     26 C          64.9934   90.4737   14.7429 C.ar    1  UNL1       -0.0039
     27 C          64.2959   91.1730   15.8718 C.ar    1  UNL1       -0.0027
     28 C          64.9710   92.3091   16.5816 C.ar    1  UNL1       -0.0003
     29 C          66.3434   92.7458   16.1625 C.ar    1  UNL1       -0.0000
     30 C          67.0408   92.0465   15.0335 C.ar    1  UNL1       -0.0003
     31 C          66.3658   90.9105   14.3237 C.ar    1  UNL1       -0.0027
@<TRIPOS>BOND
     1    22    23    1
     2    23     1    1
     3     1     2   ar
     4     2     3   ar
     5     3     4   ar
     6     4     5   ar
     7     5     6   ar
     8     6    15    1
     9    15    16   ar
    10    16    17    1
    11    16    18   ar
    12    18    19   ar
    13    19    20   ar
    14    20    21    1
    15     4     7    2
    16     7     8    1
    17     8     9    1
    18     9    10    2
    19    10    11    1
    20    11    12    2
    21    11    13   am
    22    13    24    1
    23    24    25    1
    24    24    26    1
    25    26    27   ar
    26    27    28   ar
    27    28    29   ar
    28    29    30   ar
    29    30    31   ar
    30    13    14    1
    31     6     1   ar
    32    20    15   ar
    33    14     9    1
    34    14     3    2
    35    31    26   ar
@<TRIPOS>MOLECULE
*****
 31 35 0 0 0
SMALL
GASTEIGER

@<TRIPOS>ATOM
      1 C          64.2748   89.2789   13.7919 C.ar    1  UNL1        0.1389
      2 C          63.4314   88.5747   12.7708 C.ar    1  UNL1        0.0397
      3 C          62.9312   89.3194   11.5686 C.ar    1  UNL1        0.0350
      4 C          63.2745   90.7683   11.3874 C.ar    1  UNL1        0.0778
      5 C          64.1180   91.4725   12.4085 C.ar    1  UNL1        0.0219
      6 C          64.6181   90.7278   13.6107 C.ar    1  UNL1        0.0394
      7 N          62.7744   91.5129   10.1852 N.2     1  UNL1       -0.2641
      8 C          61.9309   90.8087    9.1642 C.3     1  UNL1        0.1696
      9 C          61.5876   89.3598    9.3453 C.2     1  UNL1        0.0908
     10 N          60.7813   88.4076    8.5126 N.am    1  UNL1       -0.1630
     11 C          60.7832   87.0745    9.2001 C.2     1  UNL1        0.3313
     12 O          60.0980   85.8314    8.7152 O.2     1  UNL1       -0.2501
     13 N          61.5906   87.2027   10.4578 N.am    1  UNL1       -0.2383
     14 C          62.0877   88.6151   10.5475 C.2     1  UNL1        0.0703
     15 C          65.4616   91.4321   14.6318 C.ar    1  UNL1        0.0526
     16 C          66.8710   91.9065   14.4356 C.ar    1  UNL1        0.1007
     17 C          67.6845   91.7599   13.1839 C.3     1  UNL1        0.0557
     18 N          67.3242   92.5532   15.7109 N.ar    1  UNL1       -0.0817
     19 O          66.1949   92.4784   16.6954 O.2     1  UNL1       -0.3581
     20 C          65.0438   91.7856   16.0284 C.ar    1  UNL1        0.1545
     21 C          63.7091   91.4969   16.6491 C.3     1  UNL1        0.0754
     22 C          64.4889   87.0692   15.1414 C.3     1  UNL1        0.2525
     23 O          64.7750   88.5342   14.9941 O.3     1  UNL1       -0.4714
     24 C          61.8545   86.1104   11.4513 C.3     1  UNL1        0.1038
     25 C          61.2738   86.1956   12.8317 C.3     1  UNL1        0.0268
     26 C          62.6992   84.9327   11.0644 C.ar    1  UNL1       -0.0039
     27 C          63.1769   84.7846    9.6503 C.ar    1  UNL1       -0.0027
     28 C          64.0216   83.6069    9.2635 C.ar    1  UNL1       -0.0003
     29 C          64.3887   82.5774   10.2909 C.ar    1  UNL1       -0.0000
     30 C          63.9109   82.7256   11.7050 C.ar    1  UNL1       -0.0003
     31 C          63.0663   83.9033   12.0918 C.ar    1  UNL1       -0.0027
@<TRIPOS>BOND
     1    22    23    1
     2    23     1    1
     3     1     2   ar
     4     2     3   ar
     5     3     4   ar
     6     4     5   ar
     7     5     6   ar
     8     6    15    1
     9    15    16   ar
    10    16    17    1
    11    16    18   ar
    12    18    19   ar
    13    19    20   ar
    14    20    21    1
    15     4     7    2
    16     7     8    1
    17     8     9    1
    18     9    10    2
    19    10    11    1
    20    11    12    2
    21    11    13   am
    22    13    24    1
    23    24    25    1
    24    24    26    1
    25    26    27   ar
    26    27    28   ar
    27    28    29   ar
    28    29    30   ar
    29    30    31   ar
    30    13    14    1
    31     6     1   ar
    32    20    15   ar
    33    14     9    1
    34    14     3    2
    35    31    26   ar
@<TRIPOS>MOLECULE
*****
 31 35 0 0 0
SMALL
GASTEIGER

@<TRIPOS>ATOM
      1 C          63.6839   89.6544   12.9650 C.ar    1  UNL1        0.1389
      2 C          63.2670   88.2654   12.5817 C.ar    1  UNL1        0.0397
      3 C          63.7790   87.0878   13.3570 C.ar    1  UNL1        0.0350
      4 C          64.7079   87.2992   14.5156 C.ar    1  UNL1        0.0778
      5 C          65.1247   88.6881   14.8990 C.ar    1  UNL1        0.0219
      6 C          64.6127   89.8657   14.1236 C.ar    1  UNL1        0.0394
      7 N          65.2199   86.1216   15.2910 N.2     1  UNL1       -0.2641
      8 C          64.8031   84.7326   14.9076 C.3     1  UNL1        0.1696
      9 C          63.8741   84.5212   13.7489 C.2     1  UNL1        0.0908
     10 N          63.2934   83.2786   13.1418 N.am    1  UNL1       -0.1630
     11 C          62.4225   83.6882   11.9913 C.2     1  UNL1        0.3313
     12 O          61.6456   82.7642   11.1010 O.2     1  UNL1       -0.2501
     13 N          62.4650   85.1839   11.8873 N.am    1  UNL1       -0.2383
     14 C          63.3621   85.6988   12.9736 C.2     1  UNL1        0.0703
     15 C          65.0296   91.2547   14.5070 C.ar    1  UNL1        0.0526
     16 C          65.8506   92.1913   13.6710 C.ar    1  UNL1        0.1007
     17 C          66.3988   91.9033   12.3048 C.3     1  UNL1        0.0557
     18 N          66.0271   93.4664   14.4410 N.ar    1  UNL1       -0.0817
     19 O          65.3152   93.3179   15.7530 O.2     1  UNL1       -0.3581
     20 C          64.6987   91.9510   15.7938 C.ar    1  UNL1        0.1545
     21 C          63.8929   91.3806   16.9230 C.3     1  UNL1        0.0754
     22 C          62.7926   90.6727   10.7472 C.3     1  UNL1        0.2525
     23 O          63.1719   90.8320   12.1897 O.3     1  UNL1       -0.4714
     24 C          61.7379   86.0184   10.8748 C.3     1  UNL1        0.1038
     25 C          60.9405   87.2092   11.3177 C.3     1  UNL1        0.0268
     26 C          61.8083   85.6621    9.4195 C.ar    1  UNL1       -0.0039
     27 C          63.0613   85.0619    8.8540 C.ar    1  UNL1       -0.0027
     28 C          63.1316   84.7056    7.3986 C.ar    1  UNL1       -0.0003
     29 C          61.9490   84.9494    6.5087 C.ar    1  UNL1       -0.0000
     30 C          60.6959   85.5496    7.0743 C.ar    1  UNL1       -0.0003
     31 C          60.6257   85.9059    8.5296 C.ar    1  UNL1       -0.0027
@<TRIPOS>BOND
     1    22    23    1
     2    23     1    1
     3     1     2   ar
     4     2     3   ar
     5     3     4   ar
     6     4     5   ar
     7     5     6   ar
     8     6    15    1
     9    15    16   ar
    10    16    17    1
    11    16    18   ar
    12    18    19   ar
    13    19    20   ar
    14    20    21    1
    15     4     7    2
    16     7     8    1
    17     8     9    1
    18     9    10    2
    19    10    11    1
    20    11    12    2
    21    11    13   am
    22    13    24    1
    23    24    25    1
    24    24    26    1
    25    26    27   ar
    26    27    28   ar
    27    28    29   ar
    28    29    30   ar
    29    30    31   ar
    30    13    14    1
    31     6     1   ar
    32    20    15   ar
    33    14     9    1
    34    14     3    2
    35    31    26   ar
@<TRIPOS>MOLECULE
*****
 31 35 0 0 0
SMALL
GASTEIGER

@<TRIPOS>ATOM
      1 C          63.4445   90.2599   11.5504 C.ar    1  UNL1        0.1389
      2 C          64.5307   90.9922   12.2810 C.ar    1  UNL1        0.0397
      3 C          64.4677   91.1334   13.7730 C.ar    1  UNL1        0.0350
      4 C          63.3185   90.5421   14.5344 C.ar    1  UNL1        0.0778
      5 C          62.2323   89.8098   13.8038 C.ar    1  UNL1        0.0219
      6 C          62.2953   89.6687   12.3118 C.ar    1  UNL1        0.0394
      7 N          63.2555   90.6832   16.0264 N.2     1  UNL1       -0.2641
      8 C          64.3417   91.4156   16.7570 C.3     1  UNL1        0.1696
      9 C          65.4910   92.0068   15.9956 C.2     1  UNL1        0.0908
     10 N          66.6990   92.7772   16.4398 N.am    1  UNL1       -0.1630
     11 C          67.5085   93.1122   15.2223 C.2     1  UNL1        0.3313
     12 O          68.7991   93.8764   15.2045 O.2     1  UNL1       -0.2501
     13 N          66.8009   92.5489   14.0257 N.am    1  UNL1       -0.2383
     14 C          65.5540   91.8657   14.5036 C.2     1  UNL1        0.0703
     15 C          61.2091   88.9363   11.5812 C.ar    1  UNL1        0.0526
     16 C          61.2864   87.5297   11.0660 C.ar    1  UNL1        0.1007
     17 C          62.4635   86.6084   11.1910 C.3     1  UNL1        0.0557
     18 N          59.9799   87.2061   10.4039 N.ar    1  UNL1       -0.0817
     19 O          59.0951   88.4127   10.5099 O.2     1  UNL1       -0.3581
     20 C          59.8548   89.4820   11.2375 C.ar    1  UNL1        0.1545
     21 C          59.3490   90.8559   11.5640 C.3     1  UNL1        0.0754
     22 C          62.5287   90.8560    9.1933 C.3     1  UNL1        0.2525
     23 O          63.5075   90.1188   10.0584 O.3     1  UNL1       -0.4714
     24 C          67.2596   92.6508   12.6012 C.3     1  UNL1        0.1038
     25 C          68.1722   91.6061   12.0305 C.3     1  UNL1        0.0268
     26 C          66.8058   93.7975   11.7473 C.ar    1  UNL1       -0.0039
     27 C          66.2408   95.0312   12.3868 C.ar    1  UNL1       -0.0027
     28 C          65.7870   96.1779   11.5328 C.ar    1  UNL1       -0.0003
     29 C          65.8981   96.0909   10.0395 C.ar    1  UNL1       -0.0000
     30 C          66.4631   94.8572    9.4001 C.ar    1  UNL1       -0.0003
     31 C          66.9169   93.7106   10.2540 C.ar    1  UNL1       -0.0027
@<TRIPOS>BOND
     1    22    23    1
     2    23     1    1
     3     1     2   ar
     4     2     3   ar
     5     3     4   ar
     6     4     5   ar
     7     5     6   ar
     8     6    15    1
     9    15    16   ar
    10    16    17    1
    11    16    18   ar
    12    18    19   ar
    13    19    20   ar
    14    20    21    1
    15     4     7    2
    16     7     8    1
    17     8     9    1
    18     9    10    2
    19    10    11    1
    20    11    12    2
    21    11    13   am
    22    13    24    1
    23    24    25    1
    24    24    26    1
    25    26    27   ar
    26    27    28   ar
    27    28    29   ar
    28    29    30   ar
    29    30    31   ar
    30    13    14    1
    31     6     1   ar
    32    20    15   ar
    33    14     9    1
    34    14     3    2
    35    31    26   ar
@<TRIPOS>MOLECULE
*****
 31 35 0 0 0
SMALL
GASTEIGER

@<TRIPOS>ATOM
      1 C          63.6827   88.4019   13.0063 C.ar    1  UNL1        0.1389
      2 C          63.0969   87.6487   11.8490 C.ar    1  UNL1        0.0397
      3 C          61.9698   88.2453   11.0591 C.ar    1  UNL1        0.0350
      4 C          61.4287   89.5951   11.4265 C.ar    1  UNL1        0.0778
      5 C          62.0145   90.3484   12.5839 C.ar    1  UNL1        0.0219
      6 C          63.1415   89.7517   13.3737 C.ar    1  UNL1        0.0394
      7 N          60.3016   90.1917   10.6367 N.2     1  UNL1       -0.2641
      8 C          59.7158   89.4385    9.4793 C.3     1  UNL1        0.1696
      9 C          60.2570   88.0886    9.1118 C.2     1  UNL1        0.0908
     10 N          59.8843   87.1182    8.0305 N.am    1  UNL1       -0.1630
     11 C          60.7809   85.9219    8.1521 C.2     1  UNL1        0.3313
     12 O          60.7551   84.7077    7.2718 O.2     1  UNL1       -0.2501
     13 N          61.7078   86.1529    9.3085 N.am    1  UNL1       -0.2383
     14 C          61.3840   87.4920    9.9017 C.2     1  UNL1        0.0703
     15 C          63.7273   90.5050   14.5311 C.ar    1  UNL1        0.0526
     16 C          64.7168   91.6288   14.4416 C.ar    1  UNL1        0.1007
     17 C          65.2942   92.1967   13.1791 C.3     1  UNL1        0.0557
     18 N          65.0275   92.0851   15.8363 N.ar    1  UNL1       -0.0817
     19 O          64.2300   91.2432   16.7879 O.2     1  UNL1       -0.3581
     20 C          63.4264   90.2668   15.9812 C.ar    1  UNL1        0.1545
     21 C          62.4870   89.2334   16.5285 C.3     1  UNL1        0.0754
     22 C          64.5246   86.7780   14.8513 C.3     1  UNL1        0.2525
     23 O          64.8097   87.8053   13.7962 O.3     1  UNL1       -0.4714
     24 C          62.7717   85.2103    9.7877 C.3     1  UNL1        0.1038
     25 C          64.0347   85.0401    8.9967 C.3     1  UNL1        0.0268
     26 C          62.5725   84.4378   11.0580 C.ar    1  UNL1       -0.0039
     27 C          62.3171   85.1642   12.3453 C.ar    1  UNL1       -0.0027
     28 C          62.1179   84.3916   13.6156 C.ar    1  UNL1       -0.0003
     29 C          62.1743   82.8928   13.5986 C.ar    1  UNL1       -0.0000
     30 C          62.4298   82.1665   12.3112 C.ar    1  UNL1       -0.0003
     31 C          62.6289   82.9390   11.0410 C.ar    1  UNL1       -0.0027
@<TRIPOS>BOND
     1    22    23    1
     2    23     1    1
     3     1     2   ar
     4     2     3   ar
     5     3     4   ar
     6     4     5   ar
     7     5     6   ar
     8     6    15    1
     9    15    16   ar
    10    16    17    1
    11    16    18   ar
    12    18    19   ar
    13    19    20   ar
    14    20    21    1
    15     4     7    2
    16     7     8    1
    17     8     9    1
    18     9    10    2
    19    10    11    1
    20    11    12    2
    21    11    13   am
    22    13    24    1
    23    24    25    1
    24    24    26    1
    25    26    27   ar
    26    27    28   ar
    27    28    29   ar
    28    29    30   ar
    29    30    31   ar
    30    13    14    1
    31     6     1   ar
    32    20    15   ar
    33    14     9    1
    34    14     3    2
    35    31    26   ar
@<TRIPOS>MOLECULE
*****
 31 35 0 0 0
SMALL
GASTEIGER

@<TRIPOS>ATOM
      1 C          61.0453   87.1172   11.1718 C.ar    1  UNL1        0.1389
      2 C          61.7916   86.1605   12.0537 C.ar    1  UNL1        0.0397
      3 C          62.6778   85.1146   11.4448 C.ar    1  UNL1        0.0350
      4 C          62.8177   85.0254    9.9540 C.ar    1  UNL1        0.0778
      5 C          62.0714   85.9821    9.0721 C.ar    1  UNL1        0.0219
      6 C          61.1852   87.0280    9.6810 C.ar    1  UNL1        0.0394
      7 N          63.7039   83.9795    9.3451 N.2     1  UNL1       -0.2641
      8 C          64.4502   83.0228   10.2269 C.3     1  UNL1        0.1696
      9 C          64.3103   83.1120   11.7178 C.2     1  UNL1        0.0908
     10 N          64.9171   82.3124   12.8325 N.am    1  UNL1       -0.1630
     11 C          64.4060   82.8642   14.1302 C.2     1  UNL1        0.3313
     12 O          64.7561   82.3633   15.5001 O.2     1  UNL1       -0.2501
     13 N          63.4833   84.0047   13.8177 N.am    1  UNL1       -0.2383
     14 C          63.4241   84.1579   12.3267 C.2     1  UNL1        0.0703
     15 C          60.4389   87.9847    8.7991 C.ar    1  UNL1        0.0526
     16 C          59.3504   87.6260    7.8314 C.ar    1  UNL1        0.1007
     17 C          58.8171   86.2475    7.5756 C.3     1  UNL1        0.0557
     18 N          58.8889   88.8877    7.1643 N.ar    1  UNL1       -0.0817
     19 O          59.6921   90.0263    7.7197 O.2     1  UNL1       -0.3581
     20 C          60.6500   89.4682    8.7301 C.ar    1  UNL1        0.1545
     21 C          61.6445   90.2554    9.5309 C.3     1  UNL1        0.0754
     22 C          60.7635   89.3713   12.4326 C.3     1  UNL1        0.2525
     23 O          60.1591   88.1631   11.7807 O.3     1  UNL1       -0.4714
     24 C          62.7486   84.8446   14.8201 C.3     1  UNL1        0.1038
     25 C          61.5613   84.2820   15.5437 C.3     1  UNL1        0.0268
     26 C          63.2013   86.2473   15.0989 C.ar    1  UNL1       -0.0039
     27 C          64.0290   86.9833   14.0873 C.ar    1  UNL1       -0.0027
     28 C          64.4816   88.3860   14.3662 C.ar    1  UNL1       -0.0003
     29 C          64.1066   89.0525   15.6566 C.ar    1  UNL1       -0.0000
     30 C          63.2790   88.3164   16.6681 C.ar    1  UNL1       -0.0003
     31 C          62.8263   86.9138   16.3892 C.ar    1  UNL1       -0.0027
@<TRIPOS>BOND
     1    22    23    1
     2    23     1    1
     3     1     2   ar
     4     2     3   ar
     5     3     4   ar
     6     4     5   ar
     7     5     6   ar
     8     6    15    1
     9    15    16   ar
    10    16    17    1
    11    16    18   ar
    12    18    19   ar
    13    19    20   ar
    14    20    21    1
    15     4     7    2
    16     7     8    1
    17     8     9    1
    18     9    10    2
    19    10    11    1
    20    11    12    2
    21    11    13   am
    22    13    24    1
    23    24    25    1
    24    24    26    1
    25    26    27   ar
    26    27    28   ar
    27    28    29   ar
    28    29    30   ar
    29    30    31   ar
    30    13    14    1
    31     6     1   ar
    32    20    15   ar
    33    14     9    1
    34    14     3    2
    35    31    26   ar
@<TRIPOS>MOLECULE
*****
 31 35 0 0 0
SMALL
GASTEIGER

@<TRIPOS>ATOM
      1 C          62.3021   94.4708   -5.3873 C.ar    1  UNL1        0.1389
      2 C          61.0569   94.3867   -4.5552 C.ar    1  UNL1        0.0397
      3 C          61.1427   93.9702   -3.1168 C.ar    1  UNL1        0.0350
      4 C          62.4737   93.6378   -2.5104 C.ar    1  UNL1        0.0778
      5 C          63.7189   93.7219   -3.3424 C.ar    1  UNL1        0.0219
      6 C          63.6331   94.1383   -4.7809 C.ar    1  UNL1        0.0394
      7 N          62.5595   93.2213   -1.0719 N.2     1  UNL1       -0.2641
      8 C          61.3143   93.1373   -0.2399 C.3     1  UNL1        0.1696
      9 C          59.9832   93.4697   -0.8463 C.2     1  UNL1        0.0908
     10 N          58.5951   93.4774   -0.2779 N.am    1  UNL1       -0.1630
     11 C          57.6514   93.8987   -1.3651 C.2     1  UNL1        0.3313
     12 O          56.1640   94.0421   -1.2348 O.2     1  UNL1       -0.2501
     13 N          58.4562   94.1513   -2.6053 N.am    1  UNL1       -0.2383
     14 C          59.8974   93.8862   -2.2847 C.2     1  UNL1        0.0703
     15 C          64.8784   94.2224   -5.6129 C.ar    1  UNL1        0.0526
     16 C          65.5328   93.0840   -6.3381 C.ar    1  UNL1        0.1007
     17 C          65.0568   91.6617   -6.3585 C.3     1  UNL1        0.0557
     18 N          66.7467   93.6176   -7.0392 N.ar    1  UNL1       -0.0817
     19 O          66.8426   95.0859   -6.7473 O.2     1  UNL1       -0.3581
     20 C          65.6879   95.4596   -5.8658 C.ar    1  UNL1        0.1545
     21 C          65.3944   96.8300   -5.3312 C.3     1  UNL1        0.0754
     22 C          61.0259   95.6588   -7.3134 C.3     1  UNL1        0.2525
     23 O          62.2163   94.8873   -6.8257 O.3     1  UNL1       -0.4714
     24 C          57.9150   94.5917   -3.9331 C.3     1  UNL1        0.1038
     25 C          57.8604   96.0515   -4.2740 C.3     1  UNL1        0.0268
     26 C          57.4283   93.5724   -4.9201 C.ar    1  UNL1       -0.0039
     27 C          58.0136   93.5258   -6.3004 C.ar    1  UNL1       -0.0027
     28 C          57.5269   92.5064   -7.2874 C.ar    1  UNL1       -0.0003
     29 C          56.4549   91.5337   -6.8941 C.ar    1  UNL1       -0.0000
     30 C          55.8696   91.5804   -5.5137 C.ar    1  UNL1       -0.0003
     31 C          56.3563   92.5997   -4.5268 C.ar    1  UNL1       -0.0027
@<TRIPOS>BOND
     1    22    23    1
     2    23     1    1
     3     1     2   ar
     4     2     3   ar
     5     3     4   ar
     6     4     5   ar
     7     5     6   ar
     8     6    15    1
     9    15    16   ar
    10    16    17    1
    11    16    18   ar
    12    18    19   ar
    13    19    20   ar
    14    20    21    1
    15     4     7    2
    16     7     8    1
    17     8     9    1
    18     9    10    2
    19    10    11    1
    20    11    12    2
    21    11    13   am
    22    13    24    1
    23    24    25    1
    24    24    26    1
    25    26    27   ar
    26    27    28   ar
    27    28    29   ar
    28    29    30   ar
    29    30    31   ar
    30    13    14    1
    31     6     1   ar
    32    20    15   ar
    33    14     9    1
    34    14     3    2
    35    31    26   ar
@<TRIPOS>MOLECULE
*****
 31 35 0 0 0
SMALL
GASTEIGER

@<TRIPOS>ATOM
      1 C          61.8577   87.9069   11.5404 C.ar    1  UNL1        0.1389
      2 C          62.5003   88.7159   12.6278 C.ar    1  UNL1        0.0397
      3 C          63.3235   89.9205   12.2797 C.ar    1  UNL1        0.0350
      4 C          63.5040   90.3163   10.8442 C.ar    1  UNL1        0.0778
      5 C          62.8614   89.5073    9.7568 C.ar    1  UNL1        0.0219
      6 C          62.0382   88.3026   10.1049 C.ar    1  UNL1        0.0394
      7 N          64.3271   91.5209   10.4961 N.2     1  UNL1       -0.2641
      8 C          64.9698   92.3299   11.5835 C.3     1  UNL1        0.1696
      9 C          64.7893   91.9342   13.0191 C.2     1  UNL1        0.0908
     10 N          65.2974   92.5334   14.2969 N.am    1  UNL1       -0.1630
     11 C          64.7883   91.6990   15.4347 C.2     1  UNL1        0.3313
     12 O          65.0551   91.9377   16.8914 O.2     1  UNL1       -0.2501
     13 N          63.9655   90.5842   14.8602 N.am    1  UNL1       -0.2383
     14 C          63.9661   90.7295   13.3672 C.2     1  UNL1        0.0703
     15 C          61.3956   87.4936    9.0173 C.ar    1  UNL1        0.0526
     16 C          61.8449   86.1448    8.5390 C.ar    1  UNL1        0.1007
     17 C          63.0158   85.3681    9.0641 C.3     1  UNL1        0.0557
     18 N          60.9178   85.7091    7.4433 N.ar    1  UNL1       -0.0817
     19 O          59.8954   86.7885    7.2444 O.2     1  UNL1       -0.3581
     20 C          60.1907   87.8914    8.2173 C.ar    1  UNL1        0.1545
     21 C          59.4170   89.1680    8.3642 C.3     1  UNL1        0.0754
     22 C          61.7045   85.3854   12.1476 C.3     1  UNL1        0.2525
     23 O          61.0345   86.7022   11.8885 O.3     1  UNL1       -0.4714
     24 C          63.2651   89.5122   15.6414 C.3     1  UNL1        0.1038
     25 C          62.0885   89.8603   16.5042 C.3     1  UNL1        0.0268
     26 C          63.7412   88.0922   15.5597 C.ar    1  UNL1       -0.0039
     27 C          64.7310   87.6924   14.5059 C.ar    1  UNL1       -0.0027
     28 C          65.2071   86.2723   14.4243 C.ar    1  UNL1       -0.0003
     29 C          64.6935   85.2520   15.3965 C.ar    1  UNL1       -0.0000
     30 C          63.7037   85.6518   16.4503 C.ar    1  UNL1       -0.0003
     31 C          63.2276   87.0719   16.5319 C.ar    1  UNL1       -0.0027
@<TRIPOS>BOND
     1    22    23    1
     2    23     1    1
     3     1     2   ar
     4     2     3   ar
     5     3     4   ar
     6     4     5   ar
     7     5     6   ar
     8     6    15    1
     9    15    16   ar
    10    16    17    1
    11    16    18   ar
    12    18    19   ar
    13    19    20   ar
    14    20    21    1
    15     4     7    2
    16     7     8    1
    17     8     9    1
    18     9    10    2
    19    10    11    1
    20    11    12    2
    21    11    13   am
    22    13    24    1
    23    24    25    1
    24    24    26    1
    25    26    27   ar
    26    27    28   ar
    27    28    29   ar
    28    29    30   ar
    29    30    31   ar
    30    13    14    1
    31     6     1   ar
    32    20    15   ar
    33    14     9    1
    34    14     3    2
    35    31    26   ar
@<TRIPOS>MOLECULE
*****
 31 35 0 0 0
SMALL
GASTEIGER

@<TRIPOS>ATOM
      1 C          61.5727   88.9182   11.8290 C.ar    1  UNL1        0.1389
      2 C          62.4821   89.6615   12.7620 C.ar    1  UNL1        0.0397
      3 C          63.5429   90.5681   12.2117 C.ar    1  UNL1        0.0350
      4 C          63.6943   90.7314   10.7283 C.ar    1  UNL1        0.0778
      5 C          62.7849   89.9881    9.7953 C.ar    1  UNL1        0.0219
      6 C          61.7242   89.0816   10.3456 C.ar    1  UNL1        0.0394
      7 N          64.7551   91.6380   10.1780 N.2     1  UNL1       -0.2641
      8 C          65.6645   92.3812   11.1110 C.3     1  UNL1        0.1696
      9 C          65.5131   92.2179   12.5944 C.2     1  UNL1        0.0908
     10 N          66.2570   92.8165   13.7512 N.am    1  UNL1       -0.1630
     11 C          65.6561   92.2799   15.0164 C.2     1  UNL1        0.3313
     12 O          66.0937   92.6148   16.4115 O.2     1  UNL1       -0.2501
     13 N          64.5407   91.3497   14.6417 N.am    1  UNL1       -0.2383
     14 C          64.4523   91.3114   13.1448 C.2     1  UNL1        0.0703
     15 C          60.8148   88.3383    9.4125 C.ar    1  UNL1        0.0526
     16 C          59.8578   88.9554    8.4361 C.ar    1  UNL1        0.1007
     17 C          59.6422   90.4242    8.2213 C.3     1  UNL1        0.0557
     18 N          59.1543   87.8459    7.7122 N.ar    1  UNL1       -0.0817
     19 O          59.6765   86.5430    8.2412 O.2     1  UNL1       -0.3581
     20 C          60.7027   86.8473    9.2921 C.ar    1  UNL1        0.1545
     21 C          61.4803   85.8379   10.0835 C.3     1  UNL1        0.0754
     22 C          59.1207   88.5293   12.5945 C.3     1  UNL1        0.2525
     23 O          60.5120   88.0117   12.3793 O.3     1  UNL1       -0.4714
     24 C          63.6670   90.5910   15.5962 C.3     1  UNL1        0.1038
     25 C          62.7055   91.3280   16.4806 C.3     1  UNL1        0.0268
     26 C          63.7549   89.0952   15.6662 C.ar    1  UNL1       -0.0039
     27 C          63.0629   88.3542   16.7717 C.ar    1  UNL1       -0.0027
     28 C          63.1509   86.8584   16.8417 C.ar    1  UNL1       -0.0003
     29 C          63.9308   86.1036   15.8063 C.ar    1  UNL1       -0.0000
     30 C          64.6228   86.8447   14.7009 C.ar    1  UNL1       -0.0003
     31 C          64.5349   88.3404   14.6309 C.ar    1  UNL1       -0.0027
@<TRIPOS>BOND
     1    22    23    1
     2    23     1    1
     3     1     2   ar
     4     2     3   ar
     5     3     4   ar
     6     4     5   ar
     7     5     6   ar
     8     6    15    1
     9    15    16   ar
    10    16    17    1
    11    16    18   ar
    12    18    19   ar
    13    19    20   ar
    14    20    21    1
    15     4     7    2
    16     7     8    1
    17     8     9    1
    18     9    10    2
    19    10    11    1
    20    11    12    2
    21    11    13   am
    22    13    24    1
    23    24    25    1
    24    24    26    1
    25    26    27   ar
    26    27    28   ar
    27    28    29   ar
    28    29    30   ar
    29    30    31   ar
    30    13    14    1
    31     6     1   ar
    32    20    15   ar
    33    14     9    1
    34    14     3    2
    35    31    26   ar
