@<TRIPOS>MOLECULE
*****
 14 15 0 0 0
SMALL
GASTEIGER

@<TRIPOS>ATOM
      1 C          65.3620   91.3633   14.4957 C.ar    1  UNL1        0.0352
      2 C          66.8108   91.3654   14.8845 C.ar    1  UNL1        0.0047
      3 C          67.5950   91.9495   13.7471 C.ar    1  UNL1        0.0068
      4 C          66.6309   92.3085   12.6554 C.ar    1  UNL1        0.0307
      5 S          65.2509   91.9462   13.1181 S.2     1  UNL1       -0.0891
      6 C          66.9849   92.9221   11.3331 C.ar    1  UNL1        0.0252
      7 C          67.9204   92.2095   10.4021 C.ar    1  UNL1        0.0036
      8 C          68.2743   92.8231    9.0799 C.ar    1  UNL1        0.0207
      9 C          67.6927   94.1492    8.6887 C.ar    1  UNL1        0.0989
     10 N          66.7571   94.8618    9.6198 N.ar    1  UNL1       -0.2423
     11 C          66.4032   94.2482   10.9420 C.ar    1  UNL1        0.0993
     12 C          64.2241   90.8657   15.3370 C.3     1  UNL1        0.2052
     13 O          64.5387   92.6773   17.1725 O.2     1  UNL1       -0.1479
     14 N          63.6490   91.7386   16.4127 N.2     1  UNL1       -0.0509
@<TRIPOS>BOND
     1    13    14    2
     2    14    12    1
     3    12     1    1
     4     1     2   ar
     5     2     3   ar
     6     3     4   ar
     7     4     6    1
     8     6     7   ar
     9     7     8   ar
    10     8     9   ar
    11     9    10   ar
    12    10    11   ar
    13     4     5   ar
    14     5     1   ar
    15    11     6   ar
@<TRIPOS>MOLECULE
*****
 14 15 0 0 0
SMALL
GASTEIGER

@<TRIPOS>ATOM
      1 C          64.4864   91.2242   13.8968 C.ar    1  UNL1        0.0352
      2 C          63.6083   90.8324   12.7455 C.ar    1  UNL1        0.0047
      3 C          64.1545   91.4765   11.5059 C.ar    1  UNL1        0.0068
      4 C          65.3701   92.2664   11.8910 C.ar    1  UNL1        0.0307
      5 S          65.5752   92.1105   13.3687 S.2     1  UNL1       -0.0891
      6 C          66.2297   93.0710   10.9615 C.ar    1  UNL1        0.0252
      7 C          67.3242   92.4020   10.1842 C.ar    1  UNL1        0.0036
      8 C          68.1837   93.2066    9.2548 C.ar    1  UNL1        0.0207
      9 C          67.9487   94.6802    9.1027 C.ar    1  UNL1        0.0989
     10 N          66.8541   95.3492    9.8800 N.ar    1  UNL1       -0.2423
     11 C          65.9946   94.5447   10.8094 C.ar    1  UNL1        0.0993
     12 C          64.3071   90.8036   15.3255 C.3     1  UNL1        0.2052
     13 O          64.4299   92.6140   17.1849 O.2     1  UNL1       -0.1479
     14 N          63.6196   91.7179   16.2958 N.2     1  UNL1       -0.0509
@<TRIPOS>BOND
     1    13    14    2
     2    14    12    1
     3    12     1    1
     4     1     2   ar
     5     2     3   ar
     6     3     4   ar
     7     4     6    1
     8     6     7   ar
     9     7     8   ar
    10     8     9   ar
    11     9    10   ar
    12    10    11   ar
    13     4     5   ar
    14     5     1   ar
    15    11     6   ar
@<TRIPOS>MOLECULE
*****
 14 15 0 0 0
SMALL
GASTEIGER

@<TRIPOS>ATOM
      1 C          63.6173   90.3435   12.4001 C.ar    1  UNL1        0.0352
      2 C          63.6536   91.3520   11.2902 C.ar    1  UNL1        0.0047
      3 C          62.8844   90.7926   10.1303 C.ar    1  UNL1        0.0068
      4 C          62.3727   89.4384   10.5233 C.ar    1  UNL1        0.0307
      5 S          62.8257   89.1609   11.9261 S.2     1  UNL1       -0.0891
      6 C          61.5521   88.5226    9.6643 C.ar    1  UNL1        0.0252
      7 C          61.9520   87.0858    9.5043 C.ar    1  UNL1        0.0036
      8 C          61.1314   86.1701    8.6453 C.ar    1  UNL1        0.0207
      9 C          59.9109   86.6911    7.9462 C.ar    1  UNL1        0.0989
     10 N          59.5109   88.1279    8.1061 N.ar    1  UNL1       -0.2423
     11 C          60.3315   89.0436    8.9652 C.ar    1  UNL1        0.0993
     12 C          64.2599   90.4917   13.7474 C.3     1  UNL1        0.2052
     13 O          62.5350   89.8124   15.5676 O.2     1  UNL1       -0.1479
     14 N          63.4245   90.8455   14.9419 N.2     1  UNL1       -0.0509
@<TRIPOS>BOND
     1    13    14    2
     2    14    12    1
     3    12     1    1
     4     1     2   ar
     5     2     3   ar
     6     3     4   ar
     7     4     6    1
     8     6     7   ar
     9     7     8   ar
    10     8     9   ar
    11     9    10   ar
    12    10    11   ar
    13     4     5   ar
    14     5     1   ar
    15    11     6   ar
@<TRIPOS>MOLECULE
*****
 14 15 0 0 0
SMALL
GASTEIGER

@<TRIPOS>ATOM
      1 C          63.8139   83.6437   12.4452 C.ar    1  UNL1        0.0352
      2 C          64.2929   83.2002   11.0946 C.ar    1  UNL1        0.0047
      3 C          63.5430   83.9820   10.0572 C.ar    1  UNL1        0.0068
      4 C          62.6005   84.9086   10.7665 C.ar    1  UNL1        0.0307
      5 S          62.7680   84.6995   12.2423 S.2     1  UNL1       -0.0891
      6 C          61.6564   85.8748   10.1144 C.ar    1  UNL1        0.0252
      7 C          61.3958   85.7893    8.6397 C.ar    1  UNL1        0.0036
      8 C          60.4517   86.7554    7.9876 C.ar    1  UNL1        0.0207
      9 C          59.7681   87.8070    8.8103 C.ar    1  UNL1        0.0989
     10 N          60.0287   87.8926   10.2849 N.ar    1  UNL1       -0.2423
     11 C          60.9728   86.9265   10.9370 C.ar    1  UNL1        0.0993
     12 C          64.2962   83.1227   13.7666 C.3     1  UNL1        0.2052
     13 O          63.4563   80.7116   14.2476 O.2     1  UNL1       -0.1479
     14 N          63.4403   82.1790   14.5583 N.2     1  UNL1       -0.0509
@<TRIPOS>BOND
     1    13    14    2
     2    14    12    1
     3    12     1    1
     4     1     2   ar
     5     2     3   ar
     6     3     4   ar
     7     4     6    1
     8     6     7   ar
     9     7     8   ar
    10     8     9   ar
    11     9    10   ar
    12    10    11   ar
    13     4     5   ar
    14     5     1   ar
    15    11     6   ar
@<TRIPOS>MOLECULE
*****
 14 15 0 0 0
SMALL
GASTEIGER

@<TRIPOS>ATOM
      1 C          61.4192   86.7797    9.4602 C.ar    1  UNL1        0.0352
      2 C          62.3619   86.0204    8.5743 C.ar    1  UNL1        0.0047
      3 C          63.0021   84.9410    9.3960 C.ar    1  UNL1        0.0068
      4 C          62.4550   85.0333   10.7896 C.ar    1  UNL1        0.0307
      5 S          61.4767   86.1697   10.8293 S.2     1  UNL1       -0.0891
      6 C          62.8218   84.1450   11.9414 C.ar    1  UNL1        0.0252
      7 C          62.7419   82.6544   11.7941 C.ar    1  UNL1        0.0036
      8 C          63.1087   81.7662   12.9458 C.ar    1  UNL1        0.0207
      9 C          63.5554   82.3687   14.2449 C.ar    1  UNL1        0.0989
     10 N          63.6353   83.8592   14.3922 N.ar    1  UNL1       -0.2423
     11 C          63.2685   84.7474   13.2405 C.ar    1  UNL1        0.0993
     12 C          60.5683   87.9447    9.0491 C.3     1  UNL1        0.2052
     13 O          58.5037   86.8198    7.9437 O.2     1  UNL1       -0.1479
     14 N          59.6264   87.8131    7.8891 N.2     1  UNL1       -0.0509
@<TRIPOS>BOND
     1    13    14    2
     2    14    12    1
     3    12     1    1
     4     1     2   ar
     5     2     3   ar
     6     3     4   ar
     7     4     6    1
     8     6     7   ar
     9     7     8   ar
    10     8     9   ar
    11     9    10   ar
    12    10    11   ar
    13     4     5   ar
    14     5     1   ar
    15    11     6   ar
@<TRIPOS>MOLECULE
*****
 14 15 0 0 0
SMALL
GASTEIGER

@<TRIPOS>ATOM
      1 C          62.3357   89.4187   11.1997 C.ar    1  UNL1        0.0352
      2 C          62.5271   90.4442   10.1218 C.ar    1  UNL1        0.0047
      3 C          63.5199   91.4548   10.6145 C.ar    1  UNL1        0.0068
      4 C          63.9422   91.0540   11.9969 C.ar    1  UNL1        0.0307
      5 S          63.2103   89.7956   12.3586 S.2     1  UNL1       -0.0891
      6 C          64.9239   91.7836   12.8652 C.ar    1  UNL1        0.0252
      7 C          65.1771   91.3158   14.2678 C.ar    1  UNL1        0.0036
      8 C          66.1588   92.0454   15.1360 C.ar    1  UNL1        0.0207
      9 C          66.8874   93.2427   14.6017 C.ar    1  UNL1        0.0989
     10 N          66.6343   93.7105   13.1992 N.ar    1  UNL1       -0.2423
     11 C          65.6526   92.9810   12.3310 C.ar    1  UNL1        0.0993
     12 C          61.4290   88.2257   11.1308 C.3     1  UNL1        0.2052
     13 O          59.6953   89.4160   12.6565 O.2     1  UNL1       -0.1479
     14 N          60.0563   88.2914   11.7318 N.2     1  UNL1       -0.0509
@<TRIPOS>BOND
     1    13    14    2
     2    14    12    1
     3    12     1    1
     4     1     2   ar
     5     2     3   ar
     6     3     4   ar
     7     4     6    1
     8     6     7   ar
     9     7     8   ar
    10     8     9   ar
    11     9    10   ar
    12    10    11   ar
    13     4     5   ar
    14     5     1   ar
    15    11     6   ar
@<TRIPOS>MOLECULE
*****
 14 15 0 0 0
SMALL
GASTEIGER

@<TRIPOS>ATOM
      1 C          63.3880   83.7033   11.5329 C.ar    1  UNL1        0.0352
      2 C          63.8806   83.4758   10.1344 C.ar    1  UNL1        0.0047
      3 C          63.2925   84.5408    9.2570 C.ar    1  UNL1        0.0068
      4 C          62.4364   85.4264   10.1131 C.ar    1  UNL1        0.0307
      5 S          62.4955   84.9088   11.5197 S.2     1  UNL1       -0.0891
      6 C          61.6580   86.6201    9.6448 C.ar    1  UNL1        0.0252
      7 C          62.0475   87.9952   10.1001 C.ar    1  UNL1        0.0036
      8 C          61.2691   89.1887    9.6317 C.ar    1  UNL1        0.0207
      9 C          60.1012   89.0072    8.7081 C.ar    1  UNL1        0.0989
     10 N          59.7117   87.6321    8.2528 N.ar    1  UNL1       -0.2423
     11 C          60.4901   86.4385    8.7211 C.ar    1  UNL1        0.0993
     12 C          63.7282   82.8713   12.7338 C.3     1  UNL1        0.2052
     13 O          62.7380   81.1675   14.4269 O.2     1  UNL1       -0.1479
     14 N          62.6531   82.4786   13.7032 N.2     1  UNL1       -0.0509
@<TRIPOS>BOND
     1    13    14    2
     2    14    12    1
     3    12     1    1
     4     1     2   ar
     5     2     3   ar
     6     3     4   ar
     7     4     6    1
     8     6     7   ar
     9     7     8   ar
    10     8     9   ar
    11     9    10   ar
    12    10    11   ar
    13     4     5   ar
    14     5     1   ar
    15    11     6   ar
@<TRIPOS>MOLECULE
*****
 14 15 0 0 0
SMALL
GASTEIGER

@<TRIPOS>ATOM
      1 C          63.1457   90.1362   12.5793 C.ar    1  UNL1        0.0352
      2 C          63.4498   89.0560   13.5747 C.ar    1  UNL1        0.0047
      3 C          64.6363   89.4910   14.3827 C.ar    1  UNL1        0.0068
      4 C          65.0655   90.8401   13.8868 C.ar    1  UNL1        0.0307
      5 S          64.1442   91.2388   12.7723 S.2     1  UNL1       -0.0891
      6 C          66.2143   91.6484   14.4131 C.ar    1  UNL1        0.0252
      7 C          66.1374   92.2588   15.7811 C.ar    1  UNL1        0.0036
      8 C          67.2861   93.0671   16.3073 C.ar    1  UNL1        0.0207
      9 C          68.5118   93.2651   15.4655 C.ar    1  UNL1        0.0989
     10 N          68.5887   92.6547   14.0975 N.ar    1  UNL1       -0.2423
     11 C          67.4399   91.8463   13.5713 C.ar    1  UNL1        0.0993
     12 C          62.0375   90.1172   11.5685 C.3     1  UNL1        0.2052
     13 O          59.9220   89.4745   12.9329 O.2     1  UNL1       -0.1479
     14 N          60.8468   89.2292   11.7777 N.2     1  UNL1       -0.0509
@<TRIPOS>BOND
     1    13    14    2
     2    14    12    1
     3    12     1    1
     4     1     2   ar
     5     2     3   ar
     6     3     4   ar
     7     4     6    1
     8     6     7   ar
     9     7     8   ar
    10     8     9   ar
    11     9    10   ar
    12    10    11   ar
    13     4     5   ar
    14     5     1   ar
    15    11     6   ar
@<TRIPOS>MOLECULE
*****
 14 15 0 0 0
SMALL
GASTEIGER

@<TRIPOS>ATOM
      1 C          63.8657   90.8519   12.6038 C.ar    1  UNL1        0.0352
      2 C          64.8288   91.1860   13.7041 C.ar    1  UNL1        0.0047
      3 C          65.8223   92.1730   13.1667 C.ar    1  UNL1        0.0068
      4 C          65.4731   92.4489   11.7342 C.ar    1  UNL1        0.0307
      5 S          64.2638   91.6324   11.3863 S.2     1  UNL1       -0.0891
      6 C          66.2047   93.3782   10.8116 C.ar    1  UNL1        0.0252
      7 C          67.3671   92.8757   10.0078 C.ar    1  UNL1        0.0036
      8 C          68.0987   93.8050    9.0852 C.ar    1  UNL1        0.0207
      9 C          67.6678   95.2369    8.9665 C.ar    1  UNL1        0.0989
     10 N          66.5054   95.7394    9.7703 N.ar    1  UNL1       -0.2423
     11 C          65.7739   94.8101   10.6928 C.ar    1  UNL1        0.0993
     12 C          62.7076   89.9036   12.7034 C.3     1  UNL1        0.2052
     13 O          61.7285   87.7509   11.6278 O.2     1  UNL1       -0.1479
     14 N          62.8700   88.4742   12.2788 N.2     1  UNL1       -0.0509
@<TRIPOS>BOND
     1    13    14    2
     2    14    12    1
     3    12     1    1
     4     1     2   ar
     5     2     3   ar
     6     3     4   ar
     7     4     6    1
     8     6     7   ar
     9     7     8   ar
    10     8     9   ar
    11     9    10   ar
    12    10    11   ar
    13     4     5   ar
    14     5     1   ar
    15    11     6   ar
