@<TRIPOS>MOLECULE
*****
 34 38 0 0 0
SMALL
GASTEIGER

@<TRIPOS>ATOM
      1 C          59.1629   87.1594    8.1779 C.3     1  UNL1        0.0339
      2 C          59.9592   87.7962    9.2781 C.3     1  UNL1        0.1351
      3 C          60.9687   86.9879   10.0379 C.3     1  UNL1        0.1231
      4 N          61.7650   87.6248   11.1380 N.am    1  UNL1       -0.2724
      5 C          62.7746   86.8164   11.8979 C.2     1  UNL1        0.2506
      6 O          63.5709   87.4532   12.9980 O.2     1  UNL1       -0.2699
      7 C          61.5518   89.0700   11.4783 C.3     1  UNL1        0.1097
      8 C          60.5423   89.8783   10.7185 C.3     1  UNL1        0.1621
      9 O          59.7460   89.2414    9.6184 O.3     1  UNL1       -0.3527
     10 C          62.9878   85.3711   11.5576 C.ar    1  UNL1        0.0730
     11 C          63.0402   84.9384   10.1223 C.ar    1  UNL1        0.0070
     12 C          63.2534   83.4931    9.7821 C.ar    1  UNL1        0.0116
     13 C          63.4143   82.4806   10.8770 C.ar    1  UNL1        0.0592
     14 CL         63.6275   81.0354   10.5368 Cl      1  UNL1       -0.0822
     15 C          63.3620   82.9134   12.3123 C.ar    1  UNL1        0.0324
     16 C          63.1487   84.3586   12.6526 C.ar    1  UNL1        0.1081
     17 N          63.0964   84.7914   14.0879 N.ar    1  UNL1       -0.1476
     18 N          61.8840   84.7718   14.9710 N.ar    1  UNL1       -0.1447
     19 C          62.2856   85.2881   16.3210 C.ar    1  UNL1        0.1446
     20 C          63.7461   85.6266   16.2721 C.ar    1  UNL1        0.1446
     21 N          64.2472   85.3196   14.8920 N.ar    1  UNL1       -0.1447
     22 C          62.3481   89.7069   12.5785 C.3     1  UNL1        0.0510
     23 C          63.4656   90.6505   12.2459 C.ar    1  UNL1        0.0086
     24 C          64.4716   91.0211   13.2951 C.ar    1  UNL1        0.0189
     25 C          65.5891   91.9648   12.9625 C.ar    1  UNL1        0.1027
     26 C          65.7006   92.5379   11.5809 C.ar    1  UNL1        0.0232
     27 C          64.6947   92.1674   10.5317 C.ar    1  UNL1        0.0309
     28 C          63.5771   91.2237   10.8642 C.ar    1  UNL1        0.1363
     29 F          62.5712   90.8532    9.8151 F       1  UNL1       -0.2045
     30 N          66.5951   92.3354   14.0117 N.ar    1  UNL1       -0.1478
     31 N          68.0865   92.2902   13.8582 N.ar    1  UNL1       -0.1447
     32 C          68.6995   92.7431   15.1501 C.ar    1  UNL1        0.1446
     33 C          67.5868   93.0682   16.1022 C.ar    1  UNL1        0.1446
     34 N          66.2862   92.8162   15.3986 N.ar    1  UNL1       -0.1447
@<TRIPOS>BOND
     1     2     1    1
     2     2     3    1
     3     3     4    1
     4     4     5   am
     5     5     6    2
     6     5    10    1
     7    10    11   ar
     8    11    12   ar
     9    12    13   ar
    10    13    14    1
    11    13    15   ar
    12    15    16   ar
    13    16    17    1
    14    17    18   ar
    15    18    19   ar
    16    19    20   ar
    17    20    21   ar
    18     4     7    1
    19     7    22    1
    20    22    23    1
    21    23    24   ar
    22    24    25   ar
    23    25    30    1
    24    30    31   ar
    25    31    32   ar
    26    32    33   ar
    27    33    34   ar
    28    25    26   ar
    29    26    27   ar
    30    27    28   ar
    31    28    29    1
    32     7     8    1
    33     8     9    1
    34     9     2    1
    35    16    10   ar
    36    21    17   ar
    37    28    23   ar
    38    34    30   ar
@<TRIPOS>MOLECULE
*****
 34 38 0 0 0
SMALL
GASTEIGER

@<TRIPOS>ATOM
      1 C          60.2243   88.3908    8.0188 C.3     1  UNL1        0.0339
      2 C          60.8513   88.7869    9.3226 C.3     1  UNL1        0.1351
      3 C          61.5905   87.7688   10.1393 C.3     1  UNL1        0.1231
      4 N          62.2174   88.1649   11.4432 N.am    1  UNL1       -0.2724
      5 C          62.9566   87.1466   12.2599 C.2     1  UNL1        0.2506
      6 O          63.5836   87.5427   13.5637 O.2     1  UNL1       -0.2699
      7 C          62.1052   89.5791   11.9303 C.3     1  UNL1        0.1097
      8 C          61.3661   90.5972   11.1137 C.3     1  UNL1        0.1621
      9 O          60.7391   90.2011    9.8098 O.3     1  UNL1       -0.3527
     10 C          63.0688   85.7324   11.7727 C.ar    1  UNL1        0.0730
     11 C          63.0876   85.4456   10.3005 C.ar    1  UNL1        0.0070
     12 C          63.1998   84.0313    9.8134 C.ar    1  UNL1        0.0116
     13 C          63.2932   82.9039   10.7984 C.ar    1  UNL1        0.0592
     14 CL         63.4054   81.4897   10.3112 Cl      1  UNL1       -0.0822
     15 C          63.2744   83.1908   12.2706 C.ar    1  UNL1        0.0324
     16 C          63.1622   84.6050   12.7577 C.ar    1  UNL1        0.1081
     17 N          63.1435   84.8919   14.2299 N.ar    1  UNL1       -0.1476
     18 N          64.3259   85.2788   15.0680 N.ar    1  UNL1       -0.1447
     19 C          63.8521   85.4682   16.4786 C.ar    1  UNL1        0.1446
     20 C          62.3770   85.1984   16.5123 C.ar    1  UNL1        0.1446
     21 N          61.9390   84.8422   15.1226 N.ar    1  UNL1       -0.1447
     22 C          62.7322   89.9751   13.2342 C.3     1  UNL1        0.0510
     23 C          64.0535   90.6850   13.2460 C.ar    1  UNL1        0.0086
     24 C          64.4354   91.5781   12.1029 C.ar    1  UNL1        0.0189
     25 C          65.7567   92.2879   12.1147 C.ar    1  UNL1        0.1027
     26 C          66.6962   92.1048   13.2696 C.ar    1  UNL1        0.0232
     27 C          66.3143   91.2118   14.4127 C.ar    1  UNL1        0.0309
     28 C          64.9930   90.5019   14.4009 C.ar    1  UNL1        0.1363
     29 F          64.6111   89.6089   15.5440 F       1  UNL1       -0.2045
     30 N          66.1386   93.1810   10.9716 N.ar    1  UNL1       -0.1478
     31 N          67.1645   92.8774    9.9202 N.ar    1  UNL1       -0.1447
     32 C          67.2215   94.0432    8.9780 C.ar    1  UNL1        0.1446
     33 C          66.2309   95.0673    9.4471 C.ar    1  UNL1        0.1446
     34 N          65.5616   94.5343   10.6793 N.ar    1  UNL1       -0.1447
@<TRIPOS>BOND
     1     2     1    1
     2     2     3    1
     3     3     4    1
     4     4     5   am
     5     5     6    2
     6     5    10    1
     7    10    11   ar
     8    11    12   ar
     9    12    13   ar
    10    13    14    1
    11    13    15   ar
    12    15    16   ar
    13    16    17    1
    14    17    18   ar
    15    18    19   ar
    16    19    20   ar
    17    20    21   ar
    18     4     7    1
    19     7    22    1
    20    22    23    1
    21    23    24   ar
    22    24    25   ar
    23    25    30    1
    24    30    31   ar
    25    31    32   ar
    26    32    33   ar
    27    33    34   ar
    28    25    26   ar
    29    26    27   ar
    30    27    28   ar
    31    28    29    1
    32     7     8    1
    33     8     9    1
    34     9     2    1
    35    16    10   ar
    36    21    17   ar
    37    28    23   ar
    38    34    30   ar
@<TRIPOS>MOLECULE
*****
 34 38 0 0 0
SMALL
GASTEIGER

@<TRIPOS>ATOM
      1 C          64.3459   84.3982   13.9808 C.3     1  UNL1        0.0339
      2 C          64.2013   85.8910   13.9593 C.3     1  UNL1        0.1351
      3 C          63.4950   86.5598   12.8175 C.3     1  UNL1        0.1231
      4 N          63.3503   88.0526   12.7961 N.am    1  UNL1       -0.2724
      5 C          62.6439   88.7214   11.6542 C.2     1  UNL1        0.2506
      6 O          62.4993   90.2143   11.6327 O.2     1  UNL1       -0.2699
      7 C          63.9120   88.8767   13.9165 C.3     1  UNL1        0.1097
      8 C          64.6183   88.2080   15.0583 C.3     1  UNL1        0.1621
      9 O          64.7630   86.7151   15.0797 O.3     1  UNL1       -0.3527
     10 C          62.0823   87.8973   10.5338 C.ar    1  UNL1        0.0730
     11 C          62.9677   86.9446    9.7865 C.ar    1  UNL1        0.0070
     12 C          62.4059   86.1205    8.6661 C.ar    1  UNL1        0.0116
     13 C          60.9588   86.2491    8.2930 C.ar    1  UNL1        0.0592
     14 CL         60.3971   85.4250    7.1726 Cl      1  UNL1       -0.0822
     15 C          60.0734   87.2018    9.0402 C.ar    1  UNL1        0.0324
     16 C          60.6351   88.0259   10.1606 C.ar    1  UNL1        0.1081
     17 N          59.7496   88.9786   10.9079 N.ar    1  UNL1       -0.1476
     18 N          59.5218   90.4217   10.5678 N.ar    1  UNL1       -0.1447
     19 C          58.5679   90.9905   11.5762 C.ar    1  UNL1        0.1446
     20 C          58.2063   89.8989   12.5394 C.ar    1  UNL1        0.1446
     21 N          58.9367   88.6555   12.1263 N.ar    1  UNL1       -0.1447
     22 C          63.7674   90.3696   13.8950 C.3     1  UNL1        0.0510
     23 C          64.9879   91.2410   13.8640 C.ar    1  UNL1        0.0086
     24 C          65.6261   91.5914   12.5525 C.ar    1  UNL1        0.0189
     25 C          66.8466   92.4628   12.5214 C.ar    1  UNL1        0.1027
     26 C          67.4290   92.9838   13.8018 C.ar    1  UNL1        0.0232
     27 C          66.7908   92.6335   15.1132 C.ar    1  UNL1        0.0309
     28 C          65.5702   91.7620   15.1443 C.ar    1  UNL1        0.1363
     29 F          64.9321   91.4117   16.4558 F       1  UNL1       -0.2045
     30 N          67.4848   92.8131   11.2099 N.ar    1  UNL1       -0.1478
     31 N          68.4624   91.9658   10.4508 N.ar    1  UNL1       -0.1447
     32 C          68.8392   92.7014    9.1990 C.ar    1  UNL1        0.1446
     33 C          68.0945   94.0034    9.1844 C.ar    1  UNL1        0.1446
     34 N          67.2574   94.0725   10.4273 N.ar    1  UNL1       -0.1447
@<TRIPOS>BOND
     1     2     1    1
     2     2     3    1
     3     3     4    1
     4     4     5   am
     5     5     6    2
     6     5    10    1
     7    10    11   ar
     8    11    12   ar
     9    12    13   ar
    10    13    14    1
    11    13    15   ar
    12    15    16   ar
    13    16    17    1
    14    17    18   ar
    15    18    19   ar
    16    19    20   ar
    17    20    21   ar
    18     4     7    1
    19     7    22    1
    20    22    23    1
    21    23    24   ar
    22    24    25   ar
    23    25    30    1
    24    30    31   ar
    25    31    32   ar
    26    32    33   ar
    27    33    34   ar
    28    25    26   ar
    29    26    27   ar
    30    27    28   ar
    31    28    29    1
    32     7     8    1
    33     8     9    1
    34     9     2    1
    35    16    10   ar
    36    21    17   ar
    37    28    23   ar
    38    34    30   ar
@<TRIPOS>MOLECULE
*****
 34 38 0 0 0
SMALL
GASTEIGER

@<TRIPOS>ATOM
      1 C          62.9575   86.3818   18.3099 C.3     1  UNL1        0.0339
      2 C          63.1033   87.4311   17.2480 C.3     1  UNL1        0.1351
      3 C          63.2287   87.0289   15.8084 C.3     1  UNL1        0.1231
      4 N          63.3745   88.0782   14.7465 N.am    1  UNL1       -0.2724
      5 C          63.4999   87.6760   13.3068 C.2     1  UNL1        0.2506
      6 O          63.6457   88.7253   12.2449 O.2     1  UNL1       -0.2699
      7 C          63.3951   89.5297   15.1242 C.3     1  UNL1        0.1097
      8 C          63.2698   89.9319   16.5637 C.3     1  UNL1        0.1621
      9 O          63.1239   88.8826   17.6257 O.3     1  UNL1       -0.3527
     10 C          63.4793   86.2245   12.9292 C.ar    1  UNL1        0.0730
     11 C          64.3158   85.2394   13.6908 C.ar    1  UNL1        0.0070
     12 C          64.2952   83.7878   13.3130 C.ar    1  UNL1        0.0116
     13 C          63.4382   83.3214   12.1738 C.ar    1  UNL1        0.0592
     14 CL         63.4177   81.8699   11.7961 Cl      1  UNL1       -0.0822
     15 C          62.6018   84.3064   11.4122 C.ar    1  UNL1        0.0324
     16 C          62.6223   85.7579   11.7898 C.ar    1  UNL1        0.1081
     17 N          61.7859   86.7430   11.0282 N.ar    1  UNL1       -0.1476
     18 N          62.0188   87.1914    9.6158 N.ar    1  UNL1       -0.1447
     19 C          60.9465   88.1781    9.2600 C.ar    1  UNL1        0.1446
     20 C          60.0510   88.3396   10.4525 C.ar    1  UNL1        0.1446
     21 N          60.5697   87.4527   11.5453 N.ar    1  UNL1       -0.1447
     22 C          63.5410   90.5790   14.0622 C.3     1  UNL1        0.0510
     23 C          64.7800   91.4226   14.0066 C.ar    1  UNL1        0.0086
     24 C          65.4403   91.6994   12.6885 C.ar    1  UNL1        0.0189
     25 C          66.6793   92.5430   12.6329 C.ar    1  UNL1        0.1027
     26 C          67.2580   93.1099   13.8953 C.ar    1  UNL1        0.0232
     27 C          66.5977   92.8332   15.2134 C.ar    1  UNL1        0.0309
     28 C          65.3586   91.9895   15.2690 C.ar    1  UNL1        0.1363
     29 F          64.6983   91.7128   16.5871 F       1  UNL1       -0.2045
     30 N          67.3397   92.8198   11.3147 N.ar    1  UNL1       -0.1478
     31 N          68.3761   91.9626   10.6506 N.ar    1  UNL1       -0.1447
     32 C          68.7565   92.6154    9.3548 C.ar    1  UNL1        0.1446
     33 C          67.9552   93.8761    9.2181 C.ar    1  UNL1        0.1446
     34 N          67.0796   94.0025   10.4295 N.ar    1  UNL1       -0.1447
@<TRIPOS>BOND
     1     2     1    1
     2     2     3    1
     3     3     4    1
     4     4     5   am
     5     5     6    2
     6     5    10    1
     7    10    11   ar
     8    11    12   ar
     9    12    13   ar
    10    13    14    1
    11    13    15   ar
    12    15    16   ar
    13    16    17    1
    14    17    18   ar
    15    18    19   ar
    16    19    20   ar
    17    20    21   ar
    18     4     7    1
    19     7    22    1
    20    22    23    1
    21    23    24   ar
    22    24    25   ar
    23    25    30    1
    24    30    31   ar
    25    31    32   ar
    26    32    33   ar
    27    33    34   ar
    28    25    26   ar
    29    26    27   ar
    30    27    28   ar
    31    28    29    1
    32     7     8    1
    33     8     9    1
    34     9     2    1
    35    16    10   ar
    36    21    17   ar
    37    28    23   ar
    38    34    30   ar
@<TRIPOS>MOLECULE
*****
 34 38 0 0 0
SMALL
GASTEIGER

@<TRIPOS>ATOM
      1 C          61.2490   90.2464    9.2835 C.3     1  UNL1        0.0339
      2 C          62.0120   89.8366   10.5082 C.3     1  UNL1        0.1351
      3 C          63.1161   90.7074   11.0303 C.3     1  UNL1        0.1231
      4 N          63.8792   90.2976   12.2550 N.am    1  UNL1       -0.2724
      5 C          64.9833   91.1685   12.7771 C.2     1  UNL1        0.2506
      6 O          65.7463   90.7587   14.0017 O.2     1  UNL1       -0.2699
      7 C          63.5381   89.0170   12.9575 C.3     1  UNL1        0.1097
      8 C          62.4340   88.1461   12.4355 C.3     1  UNL1        0.1621
      9 O          61.6710   88.5560   11.2108 O.3     1  UNL1       -0.3527
     10 C          65.3243   92.4491   12.0745 C.ar    1  UNL1        0.0730
     11 C          64.7611   92.7307   10.7131 C.ar    1  UNL1        0.0070
     12 C          65.1022   94.0114   10.0105 C.ar    1  UNL1        0.0116
     13 C          66.0064   95.0105   10.6694 C.ar    1  UNL1        0.0592
     14 CL         66.3474   96.2911    9.9668 Cl      1  UNL1       -0.0822
     15 C          66.5696   94.7289   12.0308 C.ar    1  UNL1        0.0324
     16 C          66.2286   93.4483   12.7334 C.ar    1  UNL1        0.1081
     17 N          66.7918   93.1667   14.0948 N.ar    1  UNL1       -0.1476
     18 N          68.2199   92.8288   14.4056 N.ar    1  UNL1       -0.1447
     19 C          68.3365   92.6269   15.8874 C.ar    1  UNL1        0.1446
     20 C          66.9806   92.8400   16.4924 C.ar    1  UNL1        0.1446
     21 N          66.0259   93.1736   15.3845 N.ar    1  UNL1       -0.1447
     22 C          64.3012   88.6072   14.1822 C.3     1  UNL1        0.0510
     23 C          63.9368   87.3445   14.9053 C.ar    1  UNL1        0.0086
     24 C          64.0328   86.0230   14.2020 C.ar    1  UNL1        0.0189
     25 C          63.6684   84.7604   14.9251 C.ar    1  UNL1        0.1027
     26 C          63.2082   84.8191   16.3516 C.ar    1  UNL1        0.0232
     27 C          63.1122   86.1405   17.0549 C.ar    1  UNL1        0.0309
     28 C          63.4766   87.4033   16.3318 C.ar    1  UNL1        0.1363
     29 F          63.3806   88.7246   17.0351 F       1  UNL1       -0.2045
     30 N          63.7644   83.4389   14.2218 N.ar    1  UNL1       -0.1478
     31 N          63.2493   82.1272   14.7357 N.ar    1  UNL1       -0.1447
     32 C          63.5588   81.0748   13.7126 C.ar    1  UNL1        0.1446
     33 C          64.2653   81.7361   12.5664 C.ar    1  UNL1        0.1446
     34 N          64.3923   83.1973   12.8812 N.ar    1  UNL1       -0.1447
@<TRIPOS>BOND
     1     2     1    1
     2     2     3    1
     3     3     4    1
     4     4     5   am
     5     5     6    2
     6     5    10    1
     7    10    11   ar
     8    11    12   ar
     9    12    13   ar
    10    13    14    1
    11    13    15   ar
    12    15    16   ar
    13    16    17    1
    14    17    18   ar
    15    18    19   ar
    16    19    20   ar
    17    20    21   ar
    18     4     7    1
    19     7    22    1
    20    22    23    1
    21    23    24   ar
    22    24    25   ar
    23    25    30    1
    24    30    31   ar
    25    31    32   ar
    26    32    33   ar
    27    33    34   ar
    28    25    26   ar
    29    26    27   ar
    30    27    28   ar
    31    28    29    1
    32     7     8    1
    33     8     9    1
    34     9     2    1
    35    16    10   ar
    36    21    17   ar
    37    28    23   ar
    38    34    30   ar
