@<TRIPOS>MOLECULE
*****
 29 32 0 0 0
SMALL
GASTEIGER

@<TRIPOS>ATOM
      1 C          62.1060   89.3618   10.8282 C.ar    1  UNL1        0.2014
      2 N          61.5140   90.1068    9.6687 N.ar    1  UNL1       -0.2136
      3 C          60.6108   89.1670    8.9263 C.ar    1  UNL1        0.0999
      4 C          59.7620   89.3473    7.7028 C.ar    1  UNL1        0.0207
      5 C          58.9469   88.2017    7.1801 C.ar    1  UNL1        0.0016
      6 C          58.9807   86.8759    7.8808 C.ar    1  UNL1        0.0016
      7 C          59.8296   86.6956    9.1043 C.ar    1  UNL1        0.0188
      8 C          60.6446   87.8412    9.6270 C.ar    1  UNL1        0.0801
      9 N          61.5687   87.9616   10.8025 N.ar    1  UNL1       -0.2954
     10 C          64.9880   91.0338   13.8529 C.3     1  UNL1        0.0610
     11 C          64.3547   89.6934   14.0814 C.3     1  UNL1        0.0375
     12 C          63.3941   89.1360   13.0732 C.3     1  UNL1        0.0949
     13 N          63.0667   89.9191   11.8364 N.pl3   1  UNL1       -0.2794
     14 C          63.6999   91.2595   11.6079 C.3     1  UNL1        0.0949
     15 C          64.6605   91.8169   12.6162 C.3     1  UNL1        0.0375
     16 C          65.4313   92.2599   16.1001 C.3     1  UNL1        0.0897
     17 N          65.9486   91.5911   14.8611 N.3     1  UNL1       -0.2706
     18 C          67.4265   91.4797   14.6304 C.3     1  UNL1        0.1042
     19 C          68.0261   91.9846   13.3515 C.3     1  UNL1        0.1544
     20 O          69.4416   91.6360   12.9979 O.3     1  UNL1       -0.3805
     21 H          70.0452   92.0497   13.6346 H       1  UNL1        0.2105
     22 C          61.8976   86.8728   11.7804 C.3     1  UNL1        0.1354
     23 C          62.5749   85.6204   11.3087 C.ar    1  UNL1        0.0006
     24 C          63.0420   84.5999   12.3040 C.ar    1  UNL1       -0.0001
     25 C          63.7193   83.3474   11.8323 C.ar    1  UNL1        0.0294
     26 C          63.9295   83.1153   10.3653 C.ar    1  UNL1        0.1401
     27 F          64.6068   81.8628    9.8937 F       1  UNL1       -0.2042
     28 C          63.4624   84.1357    9.3701 C.ar    1  UNL1        0.0294
     29 C          62.7851   85.3883    9.8418 C.ar    1  UNL1       -0.0001
@<TRIPOS>BOND
     1    16    17    1
     2    17    18    1
     3    18    19    1
     4    19    20    1
     5    17    10    1
     6    10    11    1
     7    11    12    1
     8    12    13    1
     9    13     1    1
    10     1     2   ar
    11     2     3   ar
    12     3     4   ar
    13     4     5   ar
    14     5     6   ar
    15     6     7   ar
    16     7     8   ar
    17     8     9   ar
    18     9    22    1
    19    22    23    1
    20    23    24   ar
    21    24    25   ar
    22    25    26   ar
    23    26    27    1
    24    26    28   ar
    25    28    29   ar
    26    13    14    1
    27    14    15    1
    28    15    10    1
    29     9     1   ar
    30    29    23   ar
    31     8     3   ar
    32    20    21    1
@<TRIPOS>MOLECULE
*****
 29 32 0 0 0
SMALL
GASTEIGER

@<TRIPOS>ATOM
      1 C          64.4571   91.0703   12.7494 C.ar    1  UNL1        0.2014
      2 N          65.6635   91.8638   12.3433 N.ar    1  UNL1       -0.2136
      3 C          66.3544   92.3284   13.5910 C.ar    1  UNL1        0.0999
      4 C          67.5924   93.1472   13.8073 C.ar    1  UNL1        0.0207
      5 C          68.0511   93.4595   15.2008 C.ar    1  UNL1        0.0016
      6 C          67.2717   92.9532   16.3781 C.ar    1  UNL1        0.0016
      7 C          66.0336   92.1344   16.1619 C.ar    1  UNL1        0.0188
      8 C          65.5749   91.8221   14.7684 C.ar    1  UNL1        0.0801
      9 N          64.4024   91.0445   14.2482 N.ar    1  UNL1       -0.2954
     10 C          61.5183   89.1111    9.9611 C.3     1  UNL1        0.0610
     11 C          61.8821   90.5542    9.7741 C.3     1  UNL1        0.0375
     12 C          62.8617   91.2072   10.7035 C.3     1  UNL1        0.0949
     13 N          63.4775   90.4172   11.8200 N.pl3   1  UNL1       -0.2794
     14 C          63.1137   88.9741   12.0071 C.3     1  UNL1        0.0949
     15 C          62.1341   88.3210   11.0776 C.3     1  UNL1        0.0375
     16 C          59.7957   89.2841    8.0239 C.3     1  UNL1        0.0897
     17 N          60.5386   88.4580    9.0317 N.3     1  UNL1       -0.2706
     18 C          60.3019   86.9789    9.1101 C.3     1  UNL1        0.1042
     19 C          59.7599   86.2421    7.9213 C.3     1  UNL1        0.1544
     20 O          58.2999   86.3272    7.5878 O.3     1  UNL1       -0.3805
     21 H          57.7825   85.9040    8.2908 H       1  UNL1        0.2105
     22 C          63.3584   90.3611   15.0807 C.3     1  UNL1        0.1354
     23 C          63.5228   88.9175   15.4533 C.ar    1  UNL1        0.0006
     24 C          64.3229   88.0024   14.5743 C.ar    1  UNL1       -0.0001
     25 C          64.4874   86.5588   14.9468 C.ar    1  UNL1        0.0294
     26 C          63.8517   86.0301   16.1984 C.ar    1  UNL1        0.1401
     27 F          64.0162   84.5865   16.5709 F       1  UNL1       -0.2042
     28 C          63.0517   86.9451   17.0774 C.ar    1  UNL1        0.0294
     29 C          62.8872   88.3888   16.7049 C.ar    1  UNL1       -0.0001
@<TRIPOS>BOND
     1    16    17    1
     2    17    18    1
     3    18    19    1
     4    19    20    1
     5    17    10    1
     6    10    11    1
     7    11    12    1
     8    12    13    1
     9    13     1    1
    10     1     2   ar
    11     2     3   ar
    12     3     4   ar
    13     4     5   ar
    14     5     6   ar
    15     6     7   ar
    16     7     8   ar
    17     8     9   ar
    18     9    22    1
    19    22    23    1
    20    23    24   ar
    21    24    25   ar
    22    25    26   ar
    23    26    27    1
    24    26    28   ar
    25    28    29   ar
    26    13    14    1
    27    14    15    1
    28    15    10    1
    29     9     1   ar
    30    29    23   ar
    31     8     3   ar
    32    20    21    1
@<TRIPOS>MOLECULE
*****
 29 32 0 0 0
SMALL
GASTEIGER

@<TRIPOS>ATOM
      1 C          62.7836   86.4910   12.5200 C.ar    1  UNL1        0.2014
      2 N          63.7627   87.3638   13.2477 N.ar    1  UNL1       -0.2136
      3 C          63.6234   88.7597   12.7166 C.ar    1  UNL1        0.0999
      4 C          64.3289   90.0386   13.0581 C.ar    1  UNL1        0.0207
      5 C          63.9691   91.3074   12.3436 C.ar    1  UNL1        0.0016
      6 C          62.9038   91.2974   11.2877 C.ar    1  UNL1        0.0016
      7 C          62.1983   90.0185   10.9462 C.ar    1  UNL1        0.0188
      8 C          62.5581   88.7496   11.6606 C.ar    1  UNL1        0.0801
      9 N          62.0391   87.3475   11.5392 N.ar    1  UNL1       -0.2954
     10 C          62.1848   82.0781   13.1660 C.3     1  UNL1        0.0610
     11 C          62.5433   82.5949   11.8043 C.3     1  UNL1        0.0375
     12 C          62.7429   84.0659   11.5890 C.3     1  UNL1        0.0949
     13 N          62.5840   85.0200   12.7354 N.pl3   1  UNL1       -0.2794
     14 C          62.2254   84.5032   14.0971 C.3     1  UNL1        0.0949
     15 C          62.0258   83.0323   14.3124 C.3     1  UNL1        0.0375
     16 C          62.7885   79.6175   12.5907 C.3     1  UNL1        0.0897
     17 N          61.9851   80.6071   13.3814 N.3     1  UNL1       -0.2706
     18 C          60.9822   80.1257   14.3875 C.3     1  UNL1        0.1042
     19 C          59.5174   80.3447   14.1502 C.3     1  UNL1        0.1544
     20 O          58.5061   79.6681   15.0275 O.3     1  UNL1       -0.3805
     21 H          58.5508   78.7086   14.8920 H       1  UNL1        0.2105
     22 C          60.9642   86.8835   10.6014 C.3     1  UNL1        0.1354
     23 C          61.3328   86.2273    9.3039 C.ar    1  UNL1        0.0006
     24 C          62.7319   85.7327    9.0844 C.ar    1  UNL1       -0.0001
     25 C          63.1005   85.0766    7.7869 C.ar    1  UNL1        0.0294
     26 C          62.0701   84.9149    6.7089 C.ar    1  UNL1        0.1401
     27 F          62.4387   84.2588    5.4114 F       1  UNL1       -0.2042
     28 C          60.6711   85.4095    6.9284 C.ar    1  UNL1        0.0294
     29 C          60.3024   86.0657    8.2259 C.ar    1  UNL1       -0.0001
@<TRIPOS>BOND
     1    16    17    1
     2    17    18    1
     3    18    19    1
     4    19    20    1
     5    17    10    1
     6    10    11    1
     7    11    12    1
     8    12    13    1
     9    13     1    1
    10     1     2   ar
    11     2     3   ar
    12     3     4   ar
    13     4     5   ar
    14     5     6   ar
    15     6     7   ar
    16     7     8   ar
    17     8     9   ar
    18     9    22    1
    19    22    23    1
    20    23    24   ar
    21    24    25   ar
    22    25    26   ar
    23    26    27    1
    24    26    28   ar
    25    28    29   ar
    26    13    14    1
    27    14    15    1
    28    15    10    1
    29     9     1   ar
    30    29    23   ar
    31     8     3   ar
    32    20    21    1
@<TRIPOS>MOLECULE
*****
 29 32 0 0 0
SMALL
GASTEIGER

@<TRIPOS>ATOM
      1 C          63.8446   90.6199   12.6874 C.ar    1  UNL1        0.2014
      2 N          63.6177   90.7289   14.1661 N.ar    1  UNL1       -0.2136
      3 C          64.7371   91.5401   14.7483 C.ar    1  UNL1        0.0999
      4 C          65.0385   91.9721   16.1528 C.ar    1  UNL1        0.0207
      5 C          66.2586   92.7966   16.4383 C.ar    1  UNL1        0.0016
      6 C          67.1774   93.1889   15.3194 C.ar    1  UNL1        0.0016
      7 C          66.8760   92.7568   13.9149 C.ar    1  UNL1        0.0188
      8 C          65.6558   91.9324   13.6294 C.ar    1  UNL1        0.0801
      9 N          65.1042   91.3637   12.3557 N.ar    1  UNL1       -0.2954
     10 C          61.2092   88.4435    9.7603 C.3     1  UNL1        0.0610
     11 C          61.9183   87.6823   10.8408 C.3     1  UNL1        0.0375
     12 C          62.7968   88.4077   11.8165 C.3     1  UNL1        0.0949
     13 N          62.9661   89.8944   11.7117 N.pl3   1  UNL1       -0.2794
     14 C          62.2570   90.6557   10.6312 C.3     1  UNL1        0.0949
     15 C          61.3786   89.9302    9.6554 C.3     1  UNL1        0.0375
     16 C          59.3015   88.4731    7.9969 C.3     1  UNL1        0.0897
     17 N          60.3307   87.7181    8.7846 N.3     1  UNL1       -0.2706
     18 C          60.4815   86.2376    8.5966 C.3     1  UNL1        0.1042
     19 C          60.7235   85.6763    7.2268 C.3     1  UNL1        0.1544
     20 O          61.9055   84.7865    6.9789 O.3     1  UNL1       -0.3805
     21 H          62.7231   85.2958    7.0925 H       1  UNL1        0.2105
     22 C          65.7066   91.5127   10.9901 C.3     1  UNL1        0.1354
     23 C          66.2167   92.8485   10.5370 C.ar    1  UNL1        0.0006
     24 C          67.5005   92.9390    9.7663 C.ar    1  UNL1       -0.0001
     25 C          68.0107   94.2748    9.3132 C.ar    1  UNL1        0.0294
     26 C          67.2371   95.5201    9.6307 C.ar    1  UNL1        0.1401
     27 F          67.7473   96.8559    9.1775 F       1  UNL1       -0.2042
     28 C          65.9534   95.4296   10.4013 C.ar    1  UNL1        0.0294
     29 C          65.4432   94.0938   10.8545 C.ar    1  UNL1       -0.0001
@<TRIPOS>BOND
     1    16    17    1
     2    17    18    1
     3    18    19    1
     4    19    20    1
     5    17    10    1
     6    10    11    1
     7    11    12    1
     8    12    13    1
     9    13     1    1
    10     1     2   ar
    11     2     3   ar
    12     3     4   ar
    13     4     5   ar
    14     5     6   ar
    15     6     7   ar
    16     7     8   ar
    17     8     9   ar
    18     9    22    1
    19    22    23    1
    20    23    24   ar
    21    24    25   ar
    22    25    26   ar
    23    26    27    1
    24    26    28   ar
    25    28    29   ar
    26    13    14    1
    27    14    15    1
    28    15    10    1
    29     9     1   ar
    30    29    23   ar
    31     8     3   ar
    32    20    21    1
@<TRIPOS>MOLECULE
*****
 29 32 0 0 0
SMALL
GASTEIGER

@<TRIPOS>ATOM
      1 C          62.1804   88.7219   11.0845 C.ar    1  UNL1        0.2014
      2 N          61.0287   89.2980   10.3154 N.ar    1  UNL1       -0.2136
      3 C          60.5150   88.2380    9.3866 C.ar    1  UNL1        0.0999
      4 C          59.3954   88.2349    8.3885 C.ar    1  UNL1        0.0207
      5 C          59.1100   87.0005    7.5854 C.ar    1  UNL1        0.0016
      6 C          59.9443   85.7693    7.7805 C.ar    1  UNL1        0.0016
      7 C          61.0639   85.7724    8.7787 C.ar    1  UNL1        0.0188
      8 C          61.3493   87.0068    9.5817 C.ar    1  UNL1        0.0801
      9 N          62.3786   87.3059   10.6311 N.ar    1  UNL1       -0.2954
     10 C          64.6140   90.8653   14.2044 C.3     1  UNL1        0.0610
     11 C          64.2570   91.5600   12.9238 C.3     1  UNL1        0.0375
     12 C          63.4458   90.8455   11.8839 C.3     1  UNL1        0.0949
     13 N          62.9916   89.4364   12.1245 N.pl3   1  UNL1       -0.2794
     14 C          63.3487   88.7417   13.4050 C.3     1  UNL1        0.0949
     15 C          64.1599   89.4561   14.4450 C.3     1  UNL1        0.0375
     16 C          64.7846   92.0090   16.5309 C.3     1  UNL1        0.0897
     17 N          65.4252   91.5798   15.2443 N.3     1  UNL1       -0.2706
     18 C          66.8770   91.8650   14.9977 C.3     1  UNL1        0.1042
     19 C          67.3098   93.2359   14.5694 C.3     1  UNL1        0.1544
     20 O          66.2836   94.2606   14.1857 O.3     1  UNL1       -0.3805
     21 H          65.8274   93.9749   13.3788 H       1  UNL1        0.2105
     22 C          63.4227   86.3557   11.1380 C.3     1  UNL1        0.1354
     23 C          63.0168   85.1479   11.9294 C.ar    1  UNL1        0.0006
     24 C          62.7526   85.2695   13.4010 C.ar    1  UNL1       -0.0001
     25 C          62.3468   84.0617   14.1925 C.ar    1  UNL1        0.0294
     26 C          62.2051   82.7322   13.5124 C.ar    1  UNL1        0.1401
     27 F          61.7992   81.5244   14.3039 F       1  UNL1       -0.2042
     28 C          62.4693   82.6106   12.0409 C.ar    1  UNL1        0.0294
     29 C          62.8752   83.8184   11.2494 C.ar    1  UNL1       -0.0001
@<TRIPOS>BOND
     1    16    17    1
     2    17    18    1
     3    18    19    1
     4    19    20    1
     5    17    10    1
     6    10    11    1
     7    11    12    1
     8    12    13    1
     9    13     1    1
    10     1     2   ar
    11     2     3   ar
    12     3     4   ar
    13     4     5   ar
    14     5     6   ar
    15     6     7   ar
    16     7     8   ar
    17     8     9   ar
    18     9    22    1
    19    22    23    1
    20    23    24   ar
    21    24    25   ar
    22    25    26   ar
    23    26    27    1
    24    26    28   ar
    25    28    29   ar
    26    13    14    1
    27    14    15    1
    28    15    10    1
    29     9     1   ar
    30    29    23   ar
    31     8     3   ar
    32    20    21    1
@<TRIPOS>MOLECULE
*****
 29 32 0 0 0
SMALL
GASTEIGER

@<TRIPOS>ATOM
      1 C          71.8148   74.5812   14.8106 C.ar    1  UNL1        0.2014
      2 N          71.0619   74.5470   16.1075 N.ar    1  UNL1       -0.2136
      3 C          71.1204   73.1462   16.6407 C.ar    1  UNL1        0.0999
      4 C          70.5571   72.5205   17.8821 C.ar    1  UNL1        0.0207
      5 C          70.7829   71.0631   18.1562 C.ar    1  UNL1        0.0016
      6 C          71.5721   70.2316   17.1888 C.ar    1  UNL1        0.0016
      7 C          72.1354   70.8573   15.9475 C.ar    1  UNL1        0.0188
      8 C          71.9096   72.3146   15.6734 C.ar    1  UNL1        0.0801
      9 N          72.3387   73.2015   14.5424 N.ar    1  UNL1       -0.2954
     10 C          72.3994   78.1893   12.1857 C.3     1  UNL1        0.0610
     11 C          71.6345   77.0051   11.6734 C.3     1  UNL1        0.0375
     12 C          71.4397   75.8024   12.5484 C.3     1  UNL1        0.0949
     13 N          72.0097   75.7839   13.9357 N.pl3   1  UNL1       -0.2794
     14 C          72.7746   76.9681   14.4480 C.3     1  UNL1        0.0949
     15 C          72.9695   78.1708   13.5730 C.3     1  UNL1        0.0375
     16 C          72.8199   80.7401   11.9284 C.3     1  UNL1        0.0897
     17 N          72.5943   79.3920   11.3108 N.3     1  UNL1       -0.2706
     18 C          72.5635   79.2465    9.8182 C.3     1  UNL1        0.1042
     19 C          72.2791   80.4391    8.9541 C.3     1  UNL1        0.1544
     20 O          70.9396   80.5854    8.2949 O.3     1  UNL1       -0.3805
     21 H          70.8225   79.8791    7.6404 H       1  UNL1        0.2105
     22 C          73.1495   72.7822   13.3520 C.3     1  UNL1        0.1354
     23 C          72.4729   72.1696   12.1618 C.ar    1  UNL1        0.0006
     24 C          71.0161   71.8177   12.2259 C.ar    1  UNL1       -0.0001
     25 C          70.3394   71.2050   11.0356 C.ar    1  UNL1        0.0294
     26 C          71.1195   70.9442    9.7812 C.ar    1  UNL1        0.1401
     27 F          70.4428   70.3316    8.5910 F       1  UNL1       -0.2042
     28 C          72.5762   71.2961    9.7171 C.ar    1  UNL1        0.0294
     29 C          73.2529   71.9088   10.9074 C.ar    1  UNL1       -0.0001
@<TRIPOS>BOND
     1    16    17    1
     2    17    18    1
     3    18    19    1
     4    19    20    1
     5    17    10    1
     6    10    11    1
     7    11    12    1
     8    12    13    1
     9    13     1    1
    10     1     2   ar
    11     2     3   ar
    12     3     4   ar
    13     4     5   ar
    14     5     6   ar
    15     6     7   ar
    16     7     8   ar
    17     8     9   ar
    18     9    22    1
    19    22    23    1
    20    23    24   ar
    21    24    25   ar
    22    25    26   ar
    23    26    27    1
    24    26    28   ar
    25    28    29   ar
    26    13    14    1
    27    14    15    1
    28    15    10    1
    29     9     1   ar
    30    29    23   ar
    31     8     3   ar
    32    20    21    1
@<TRIPOS>MOLECULE
*****
 29 32 0 0 0
SMALL
GASTEIGER

@<TRIPOS>ATOM
      1 C          65.0626   91.2058   13.2271 C.ar    1  UNL1        0.2014
      2 N          65.6172   90.6654   14.5117 N.ar    1  UNL1       -0.2136
      3 C          66.5575   91.6882   15.0773 C.ar    1  UNL1        0.0999
      4 C          67.3930   91.7033   16.3230 C.ar    1  UNL1        0.0207
      5 C          68.2549   92.8910   16.6335 C.ar    1  UNL1        0.0016
      6 C          68.2814   94.0635   15.6984 C.ar    1  UNL1        0.0016
      7 C          67.4460   94.0484   14.4527 C.ar    1  UNL1        0.0188
      8 C          66.5840   92.8607   14.1422 C.ar    1  UNL1        0.0801
      9 N          65.6601   92.5626   12.9987 N.ar    1  UNL1       -0.2954
     10 C          62.1225   89.1225   10.5316 C.3     1  UNL1        0.0610
     11 C          62.6139   88.4412   11.7743 C.3     1  UNL1        0.0375
     12 C          63.5939   89.1356   12.6728 C.3     1  UNL1        0.0949
     13 N          64.0826   90.5114   12.3286 N.pl3   1  UNL1       -0.2794
     14 C          63.5912   91.1927   11.0859 C.3     1  UNL1        0.0949
     15 C          62.6112   90.4982   10.1874 C.3     1  UNL1        0.0375
     16 C          61.2966   86.9643    9.3443 C.3     1  UNL1        0.0897
     17 N          61.1425   88.4281    9.6331 N.3     1  UNL1       -0.2706
     18 C          60.0084   89.1974    9.0234 C.3     1  UNL1        0.1042
     19 C          59.5455   88.8758    7.6333 C.3     1  UNL1        0.1544
     20 O          58.4464   87.8773    7.4211 O.3     1  UNL1       -0.3805
     21 H          58.7496   86.9987    7.6986 H       1  UNL1        0.2105
     22 C          65.3825   93.4631   11.8317 C.3     1  UNL1        0.1354
     23 C          66.3045   93.4636   10.6486 C.ar    1  UNL1        0.0006
     24 C          66.2941   94.6173    9.6900 C.ar    1  UNL1       -0.0001
     25 C          67.2162   94.6178    8.5068 C.ar    1  UNL1        0.0294
     26 C          68.1487   93.4645    8.2823 C.ar    1  UNL1        0.1401
     27 F          69.0707   93.4650    7.0992 F       1  UNL1       -0.2042
     28 C          68.1591   92.3108    9.2409 C.ar    1  UNL1        0.0294
     29 C          67.2371   92.3103   10.4240 C.ar    1  UNL1       -0.0001
@<TRIPOS>BOND
     1    16    17    1
     2    17    18    1
     3    18    19    1
     4    19    20    1
     5    17    10    1
     6    10    11    1
     7    11    12    1
     8    12    13    1
     9    13     1    1
    10     1     2   ar
    11     2     3   ar
    12     3     4   ar
    13     4     5   ar
    14     5     6   ar
    15     6     7   ar
    16     7     8   ar
    17     8     9   ar
    18     9    22    1
    19    22    23    1
    20    23    24   ar
    21    24    25   ar
    22    25    26   ar
    23    26    27    1
    24    26    28   ar
    25    28    29   ar
    26    13    14    1
    27    14    15    1
    28    15    10    1
    29     9     1   ar
    30    29    23   ar
    31     8     3   ar
    32    20    21    1
@<TRIPOS>MOLECULE
*****
 29 32 0 0 0
SMALL
GASTEIGER

@<TRIPOS>ATOM
      1 C          59.5927   94.0529    0.0861 C.ar    1  UNL1        0.2014
      2 N          59.6992   93.2270    1.3338 N.ar    1  UNL1       -0.2136
      3 C          61.1550   93.0131    1.6252 C.ar    1  UNL1        0.0999
      4 C          61.8608   92.2764    2.7248 C.ar    1  UNL1        0.0207
      5 C          63.3598   92.2333    2.7568 C.ar    1  UNL1        0.0016
      6 C          64.1530   92.9269    1.6892 C.ar    1  UNL1        0.0016
      7 C          63.4473   93.6637    0.5897 C.ar    1  UNL1        0.0188
      8 C          61.9483   93.7068    0.5577 C.ar    1  UNL1        0.0801
      9 N          60.9827   94.3493   -0.3935 N.ar    1  UNL1       -0.2954
     10 C          55.7738   95.4037   -1.8738 C.3     1  UNL1        0.0610
     11 C          56.7733   96.4172   -1.4008 C.3     1  UNL1        0.0375
     12 C          58.0463   95.9669   -0.7475 C.3     1  UNL1        0.0949
     13 N          58.3198   94.5031   -0.5672 N.pl3   1  UNL1       -0.2794
     14 C          57.3203   93.4896   -1.0402 C.3     1  UNL1        0.0949
     15 C          56.0473   93.9399   -1.6935 C.3     1  UNL1        0.0375
     16 C          54.3886   95.8649   -4.0229 C.3     1  UNL1        0.0897
     17 N          54.5009   95.8539   -2.5272 N.3     1  UNL1       -0.2706
     18 C          53.3401   96.2932   -1.6848 C.3     1  UNL1        0.1042
     19 C          51.9911   96.4896   -2.3105 C.3     1  UNL1        0.1544
     20 O          51.1336   95.3016   -2.6325 O.3     1  UNL1       -0.3805
     21 H          51.5592   94.7742   -3.3264 H       1  UNL1        0.2105
     22 C          61.3438   95.1482   -1.6107 C.3     1  UNL1        0.1354
     23 C          62.4245   94.6648   -2.5316 C.ar    1  UNL1        0.0006
     24 C          62.4055   93.2514   -3.0337 C.ar    1  UNL1       -0.0001
     25 C          63.4862   92.7679   -3.9547 C.ar    1  UNL1        0.0294
     26 C          64.5861   93.6979   -4.3737 C.ar    1  UNL1        0.1401
     27 F          65.6668   93.2145   -5.2947 F       1  UNL1       -0.2042
     28 C          64.6051   95.1113   -3.8717 C.ar    1  UNL1        0.0294
     29 C          63.5244   95.5947   -2.9507 C.ar    1  UNL1       -0.0001
@<TRIPOS>BOND
     1    16    17    1
     2    17    18    1
     3    18    19    1
     4    19    20    1
     5    17    10    1
     6    10    11    1
     7    11    12    1
     8    12    13    1
     9    13     1    1
    10     1     2   ar
    11     2     3   ar
    12     3     4   ar
    13     4     5   ar
    14     5     6   ar
    15     6     7   ar
    16     7     8   ar
    17     8     9   ar
    18     9    22    1
    19    22    23    1
    20    23    24   ar
    21    24    25   ar
    22    25    26   ar
    23    26    27    1
    24    26    28   ar
    25    28    29   ar
    26    13    14    1
    27    14    15    1
    28    15    10    1
    29     9     1   ar
    30    29    23   ar
    31     8     3   ar
    32    20    21    1
@<TRIPOS>MOLECULE
*****
 29 32 0 0 0
SMALL
GASTEIGER

@<TRIPOS>ATOM
      1 C          62.8892   86.5376   12.3228 C.ar    1  UNL1        0.2014
      2 N          63.7864   87.5349   12.9940 N.ar    1  UNL1       -0.2136
      3 C          63.4326   88.8980   12.4776 C.ar    1  UNL1        0.0999
      4 C          63.9824   90.2602   12.7813 C.ar    1  UNL1        0.0207
      5 C          63.4163   91.4676   12.0946 C.ar    1  UNL1        0.0016
      6 C          62.3004   91.3128   11.1041 C.ar    1  UNL1        0.0016
      7 C          61.7507   89.9507   10.8005 C.ar    1  UNL1        0.0188
      8 C          62.3168   88.7433   11.4872 C.ar    1  UNL1        0.0801
      9 N          61.9809   87.2845   11.3915 N.ar    1  UNL1       -0.2954
     10 C          62.9176   82.0869   12.9863 C.3     1  UNL1        0.0610
     11 C          62.4990   83.0077   14.0939 C.3     1  UNL1        0.0375
     12 C          62.4895   84.4912   13.8727 C.3     1  UNL1        0.0949
     13 N          62.8987   85.0540   12.5439 N.pl3   1  UNL1       -0.2794
     14 C          63.3172   84.1333   11.4363 C.3     1  UNL1        0.0949
     15 C          63.3267   82.6497   11.6574 C.3     1  UNL1        0.0375
     16 C          63.6068   80.0294   14.4151 C.3     1  UNL1        0.0897
     17 N          62.9270   80.6033   13.2074 N.3     1  UNL1       -0.2706
     18 C          62.2567   79.6937   12.2210 C.3     1  UNL1        0.1042
     19 C          62.8761   79.4602   10.8749 C.3     1  UNL1        0.1544
     20 O          62.6542   78.1587   10.1628 O.3     1  UNL1       -0.3805
     21 H          63.0751   77.4412   10.6618 H       1  UNL1        0.2105
     22 C          60.9226   86.6789   10.5179 C.3     1  UNL1        0.1354
     23 C          61.2953   86.0781    9.1950 C.ar    1  UNL1        0.0006
     24 C          60.2649   85.9502    8.1124 C.ar    1  UNL1       -0.0001
     25 C          60.6375   85.3494    6.7894 C.ar    1  UNL1        0.0294
     26 C          62.0406   84.8766    6.5490 C.ar    1  UNL1        0.1401
     27 F          62.4133   84.2759    5.2261 F       1  UNL1       -0.2042
     28 C          63.0710   85.0046    7.6316 C.ar    1  UNL1        0.0294
     29 C          62.6984   85.6053    8.9545 C.ar    1  UNL1       -0.0001
@<TRIPOS>BOND
     1    16    17    1
     2    17    18    1
     3    18    19    1
     4    19    20    1
     5    17    10    1
     6    10    11    1
     7    11    12    1
     8    12    13    1
     9    13     1    1
    10     1     2   ar
    11     2     3   ar
    12     3     4   ar
    13     4     5   ar
    14     5     6   ar
    15     6     7   ar
    16     7     8   ar
    17     8     9   ar
    18     9    22    1
    19    22    23    1
    20    23    24   ar
    21    24    25   ar
    22    25    26   ar
    23    26    27    1
    24    26    28   ar
    25    28    29   ar
    26    13    14    1
    27    14    15    1
    28    15    10    1
    29     9     1   ar
    30    29    23   ar
    31     8     3   ar
    32    20    21    1
