@<TRIPOS>MOLECULE
*****
 80 85 0 0 0
SMALL
GASTEIGER

@<TRIPOS>ATOM
      1 C          62.6129   85.2177   10.7660 C.1     1  UNL1       -0.0403
      2 C          62.7030   86.6208   10.2431 C.1     1  UNL1       -0.0403
      3 C          62.7930   88.0238    9.7202 C.3     1  UNL1        0.2829
      4 O          62.2026   88.3656    8.3843 O.3     1  UNL1       -0.4454
      5 C          60.7333   88.1825    8.1447 C.ar    1  UNL1        0.2286
      6 N          59.9739   87.1362    8.9055 N.ar    1  UNL1       -0.1893
      7 C          58.5045   86.9531    8.6659 C.ar    1  UNL1        0.2015
      8 N          57.7945   87.8162    7.6655 N.ar    1  UNL1       -0.2237
      9 C          58.5538   88.8624    6.9046 C.ar    1  UNL1        0.0906
     10 C          57.8437   89.7255    5.9042 C.ar    1  UNL1        0.0575
     11 C          58.6031   90.7717    5.1433 C.ar    1  UNL1        0.1535
     12 C          60.0724   90.9548    5.3829 C.ar    1  UNL1        0.0850
     13 C          60.7825   90.0918    6.3834 C.ar    1  UNL1        0.0239
     14 C          60.0232   89.0456    7.1442 C.ar    1  UNL1        0.0723
     15 N          60.8317   92.0010    4.6221 N.am    1  UNL1       -0.2802
     16 C          61.8381   91.5933    3.5871 C.2     1  UNL1        0.2443
     17 O          62.0851   90.1394    3.3131 O.2     1  UNL1       -0.2730
     18 H          60.6696   92.9553    4.8020 H       1  UNL1        0.1550
     19 C          62.5974   92.6395    2.8263 C.3     1  UNL1        0.1521
     20 C          64.0074   93.0754    3.0946 C.3     1  UNL1        0.0310
     21 C          64.3614   94.1388    2.0977 C.3     1  UNL1        0.0237
     22 C          63.1702   94.3602    1.2133 C.3     1  UNL1        0.0939
     23 N          62.0800   93.4336    1.6636 N.am    1  UNL1       -0.2717
     24 C          60.7125   93.3208    1.0576 C.2     1  UNL1        0.2438
     25 O          59.7221   92.3435    1.6179 O.2     1  UNL1       -0.2731
     26 C          60.3354   94.1854   -0.1087 C.3     1  UNL1        0.1487
     27 C          61.3991   94.7162   -1.0237 C.3     1  UNL1        0.0250
     28 C          61.1295   96.1068   -0.5303 C.3     1  UNL1        0.0021
     29 C          61.6686   93.3256   -1.5170 C.3     1  UNL1        0.0021
     30 C          62.4627   95.2470   -1.9386 C.3     1  UNL1        0.0021
     31 N          58.8948   94.5192   -0.3600 N.am    1  UNL1       -0.2973
     32 C          58.0021   93.5241   -1.0403 C.2     1  UNL1        0.2370
     33 O          58.5499   92.1953   -1.4692 O.2     1  UNL1       -0.2737
     34 H          58.5352   95.3914   -0.0785 H       1  UNL1        0.1499
     35 C          56.5614   93.8579   -1.2917 C.3     1  UNL1        0.1316
     36 C          56.1086   95.2877   -1.2738 C.3     1  UNL1        0.0270
     37 N          55.5736   92.7616   -1.5609 N.3     1  UNL1       -0.2902
     38 C          55.8135   91.7947   -2.6824 C.3     1  UNL1        0.0862
     39 H          54.6775   93.2119   -1.7470 H       1  UNL1        0.1237
     40 O          57.8930   91.6348    4.1429 O.3     1  UNL1       -0.4701
     41 C          56.5246   92.1674    4.4491 C.3     1  UNL1        0.2525
     42 C          62.5229   83.8148   11.2890 C.3     1  UNL1        0.2829
     43 O          63.5248   83.3220   12.2908 O.3     1  UNL1       -0.4454
     44 C          63.9375   87.4785   13.9651 C.ar    1  UNL1        0.0850
     45 C          63.7999   86.0930   13.4070 C.ar    1  UNL1        0.0239
     46 C          63.4420   84.9518   14.3124 C.ar    1  UNL1        0.0723
     47 C          63.3044   83.5663   13.7543 C.ar    1  UNL1        0.2286
     48 N          62.9465   82.4252   14.6596 N.ar    1  UNL1       -0.1893
     49 C          62.7262   82.6696   16.1231 C.ar    1  UNL1        0.2015
     50 N          62.8638   84.0550   16.6812 N.ar    1  UNL1       -0.2237
     51 C          63.2217   85.1962   15.7758 C.ar    1  UNL1        0.0906
     52 C          63.3593   86.5817   16.3339 C.ar    1  UNL1        0.0575
     53 C          63.7172   87.7228   15.4286 C.ar    1  UNL1        0.1535
     54 C          63.2670   89.6564   12.7174 C.2     1  UNL1        0.2443
     55 O          61.8806   89.5521   13.2804 O.2     1  UNL1       -0.2730
     56 N          64.2954   88.6196   13.0597 N.am    1  UNL1       -0.2802
     57 H          65.2054   88.6881   12.6902 H       1  UNL1        0.1550
     58 C          65.5924   91.8803   13.2619 C.2     1  UNL1        0.2438
     59 O          65.4629   90.8544   14.3485 O.2     1  UNL1       -0.2731
     60 N          64.6938   91.8198   12.0624 N.am    1  UNL1       -0.2717
     61 C          64.7064   92.7709   10.9024 C.3     1  UNL1        0.0939
     62 C          63.6452   92.3365    9.9353 C.3     1  UNL1        0.0237
     63 C          62.9769   91.1169   10.4975 C.3     1  UNL1        0.0310
     64 C          63.6249   90.7976   11.8120 C.3     1  UNL1        0.1521
     65 C          66.6205   92.9667   13.3748 C.3     1  UNL1        0.1487
     66 C          66.9997   94.4529   11.2779 C.2     1  UNL1        0.2370
     67 O          67.7746   93.3431   10.6314 O.2     1  UNL1       -0.2737
     68 N          66.4227   94.2647   12.6496 N.am    1  UNL1       -0.2973
     69 H          65.9142   94.9932   13.0739 H       1  UNL1        0.1499
     70 C          66.8020   95.7510   10.5526 C.3     1  UNL1        0.1316
     71 C          65.8304   96.7646   11.0804 C.3     1  UNL1        0.0270
     72 C          66.8515   96.3889    8.0346 C.3     1  UNL1        0.0862
     73 N          67.5759   96.0354    9.2996 N.3     1  UNL1       -0.2902
     74 H          68.1998   96.8146    9.5093 H       1  UNL1        0.1237
     75 C          67.8464   92.7550   14.2129 C.3     1  UNL1        0.0250
     76 C          67.3272   93.7375   15.2204 C.3     1  UNL1        0.0021
     77 C          68.3655   91.7725   13.2053 C.3     1  UNL1        0.0021
     78 C          69.0723   92.5433   15.0509 C.3     1  UNL1        0.0021
     79 O          63.8548   89.1083   15.9867 O.3     1  UNL1       -0.4701
     80 C          62.8355   89.6316   16.9547 C.3     1  UNL1        0.2525
@<TRIPOS>BOND
     1    72    73    1
     2    73    70    1
     3    70    71    1
     4    70    66    1
     5    66    67    2
     6    66    68   am
     7    65    68    1
     8    65    58    1
     9    58    59    2
    10    58    60   am
    11    60    61    1
    12    61    62    1
    13    62    63    1
    14    63    64    1
    15    64    54    1
    16    54    55    2
    17    54    56   am
    18    56    44    1
    19    44    45   ar
    20    45    46   ar
    21    46    47   ar
    22    47    43    1
    23    43    42    1
    24    42     1    1
    25     1     2    3
    26     2     3    1
    27     3     4    1
    28     4     5    1
    29     5     6   ar
    30     6     7   ar
    31     7     8   ar
    32     8     9   ar
    33     9    10   ar
    34    10    11   ar
    35    11    40    1
    36    40    41    1
    37    11    12   ar
    38    12    15    1
    39    15    16   am
    40    16    17    2
    41    19    16    1
    42    19    20    1
    43    20    21    1
    44    21    22    1
    45    22    23    1
    46    23    24   am
    47    24    25    2
    48    24    26    1
    49    26    31    1
    50    31    32   am
    51    32    33    2
    52    32    35    1
    53    35    36    1
    54    35    37    1
    55    37    38    1
    56    26    27    1
    57    27    28    1
    58    27    29    1
    59    27    30    1
    60    12    13   ar
    61    13    14   ar
    62    47    48   ar
    63    48    49   ar
    64    49    50   ar
    65    50    51   ar
    66    51    52   ar
    67    52    53   ar
    68    53    79    1
    69    79    80    1
    70    65    75    1
    71    75    76    1
    72    75    77    1
    73    75    78    1
    74    64    60    1
    75    53    44   ar
    76    51    46   ar
    77    14     5   ar
    78    14     9   ar
    79    23    19    1
    80    73    74    1
    81    68    69    1
    82    56    57    1
    83    15    18    1
    84    31    34    1
    85    37    39    1
@<TRIPOS>MOLECULE
*****
 80 85 0 0 0
SMALL
GASTEIGER

@<TRIPOS>ATOM
      1 C          63.3312   85.6416    9.0938 C.1     1  UNL1       -0.0403
      2 C          63.6512   84.2163    9.4348 C.1     1  UNL1       -0.0403
      3 C          63.9712   82.7911    9.7759 C.3     1  UNL1        0.2829
      4 O          62.9028   81.8935   10.3261 O.3     1  UNL1       -0.4454
      5 C          62.8572   81.5950   11.7954 C.ar    1  UNL1        0.2286
      6 N          62.6955   80.1808   12.2687 N.ar    1  UNL1       -0.1893
      7 C          62.6499   79.8822   13.7379 C.ar    1  UNL1        0.2015
      8 N          62.7662   80.9978   14.7339 N.ar    1  UNL1       -0.2237
      9 C          62.9279   82.4119   14.2607 C.ar    1  UNL1        0.0906
     10 C          63.0442   83.5275   15.2567 C.ar    1  UNL1        0.0575
     11 C          63.2060   84.9416   14.7833 C.ar    1  UNL1        0.1535
     12 C          63.2515   85.2402   13.3141 C.ar    1  UNL1        0.0850
     13 C          63.1353   84.1247   12.3181 C.ar    1  UNL1        0.0239
     14 C          62.9735   82.7105   12.7914 C.ar    1  UNL1        0.0723
     15 N          63.4133   86.6543   12.8408 N.am    1  UNL1       -0.2802
     16 C          62.2948   87.3319   12.1059 C.2     1  UNL1        0.2443
     17 O          61.0146   86.5953   11.8443 O.2     1  UNL1       -0.2730
     18 H          64.2535   87.1378   13.0126 H       1  UNL1        0.1550
     19 C          62.4566   88.7460   11.6327 C.3     1  UNL1        0.1521
     20 C          61.7408   89.3755   10.4745 C.3     1  UNL1        0.0310
     21 C          62.2044   90.7975   10.3605 C.3     1  UNL1        0.0237
     22 C          63.2067   91.0469   11.4483 C.3     1  UNL1        0.0939
     23 N          63.3626   89.7790   12.2345 N.am    1  UNL1       -0.2717
     24 C          64.2658   89.5792   13.4152 C.2     1  UNL1        0.2438
     25 O          64.3160   88.2478   14.1043 O.2     1  UNL1       -0.2731
     26 C          65.1189   90.7108   13.9069 C.3     1  UNL1        0.1487
     27 C          64.8417   91.3333   15.2432 C.3     1  UNL1        0.0250
     28 C          66.2236   91.9165   15.2581 C.3     1  UNL1        0.0021
     29 C          63.4599   90.7500   15.2283 C.3     1  UNL1        0.0021
     30 C          64.5646   91.9557   16.5795 C.3     1  UNL1        0.0021
     31 N          66.2491   91.2199   13.0622 N.am    1  UNL1       -0.2973
     32 C          66.0523   92.4280   12.1952 C.2     1  UNL1        0.2370
     33 O          64.7253   93.1270   12.1728 O.2     1  UNL1       -0.2737
     34 H          67.1201   90.7612   13.0769 H       1  UNL1        0.1499
     35 C          67.1824   92.9372   11.3505 C.3     1  UNL1        0.1316
     36 C          68.2631   91.9999   10.8994 C.3     1  UNL1        0.0270
     37 N          67.2319   94.3838   10.9569 N.3     1  UNL1       -0.2902
     38 C          67.2666   94.7658    9.5068 C.3     1  UNL1        0.0862
     39 H          68.0700   94.7770   11.3851 H       1  UNL1        0.1237
     40 O          63.3222   86.0572   15.7793 O.3     1  UNL1       -0.4701
     41 C          62.5592   85.9935   17.0692 C.3     1  UNL1        0.2525
     42 C          63.0112   87.0668    8.7527 C.3     1  UNL1        0.2829
     43 O          62.2135   87.3826    7.5223 O.3     1  UNL1       -0.4454
     44 C          60.1018   90.7267    5.3758 C.ar    1  UNL1        0.0850
     45 C          60.8057   89.6120    6.0913 C.ar    1  UNL1        0.0239
     46 C          60.0168   88.6181    6.8913 C.ar    1  UNL1        0.0723
     47 C          60.7207   87.5034    7.6068 C.ar    1  UNL1        0.2286
     48 N          59.9319   86.5095    8.4068 N.ar    1  UNL1       -0.1893
     49 C          58.4392   86.6304    8.4913 C.ar    1  UNL1        0.2015
     50 N          57.7353   87.7451    7.7758 N.ar    1  UNL1       -0.2237
     51 C          58.5241   88.7390    6.9758 C.ar    1  UNL1        0.0906
     52 C          57.8202   89.8537    6.2603 C.ar    1  UNL1        0.0575
     53 C          58.6090   90.8475    5.4603 C.ar    1  UNL1        0.1535
     54 C          61.9158   91.2450    3.5896 C.2     1  UNL1        0.2443
     55 O          62.1523   89.7755    3.4034 O.2     1  UNL1       -0.2730
     56 N          60.8906   91.7206    4.5758 N.am    1  UNL1       -0.2802
     57 H          60.7354   92.6850    4.6981 H       1  UNL1        0.1550
     58 C          60.9104   92.7538    0.8763 C.2     1  UNL1        0.2438
     59 O          59.9009   91.8097    1.4591 O.2     1  UNL1       -0.2731
     60 N          62.2424   92.9324    1.5424 N.am    1  UNL1       -0.2717
     61 C          63.3462   93.8359    1.0783 C.3     1  UNL1        0.0939
     62 C          64.4906   93.7008    2.0387 C.3     1  UNL1        0.0237
     63 C          64.0940   92.7138    3.0963 C.3     1  UNL1        0.0310
     64 C          62.7046   92.2389    2.7896 C.3     1  UNL1        0.1521
     65 C          60.5878   93.5192   -0.3727 C.3     1  UNL1        0.1487
     66 C          62.2469   94.1966   -2.2537 C.2     1  UNL1        0.2370
     67 O          62.4806   95.5130   -1.5736 O.2     1  UNL1       -0.2737
     68 N          61.3005   93.1997   -1.6533 N.am    1  UNL1       -0.2973
     69 H          61.1472   92.3358   -2.0997 H       1  UNL1        0.1499
     70 C          62.9597   93.8772   -3.5344 C.3     1  UNL1        0.1316
     71 C          62.3353   94.2365   -4.8501 C.3     1  UNL1        0.0270
     72 C          64.9190   92.7010   -4.7702 C.3     1  UNL1        0.0862
     73 N          64.2968   93.1985   -3.4992 N.3     1  UNL1       -0.2902
     74 H          64.9537   93.8631   -3.0903 H       1  UNL1        0.1237
     75 C          59.5525   94.6042   -0.3411 C.3     1  UNL1        0.0250
     76 C          58.8476   93.9654   -1.5008 C.3     1  UNL1        0.0021
     77 C          60.2574   95.2430    0.8187 C.3     1  UNL1        0.0021
     78 C          58.5173   95.6892   -0.3094 C.3     1  UNL1        0.0021
     79 O          57.9051   91.9622    4.7448 O.3     1  UNL1       -0.4701
     80 C          56.4121   91.9374    4.6026 C.3     1  UNL1        0.2525
@<TRIPOS>BOND
     1    72    73    1
     2    73    70    1
     3    70    71    1
     4    70    66    1
     5    66    67    2
     6    66    68   am
     7    65    68    1
     8    65    58    1
     9    58    59    2
    10    58    60   am
    11    60    61    1
    12    61    62    1
    13    62    63    1
    14    63    64    1
    15    64    54    1
    16    54    55    2
    17    54    56   am
    18    56    44    1
    19    44    45   ar
    20    45    46   ar
    21    46    47   ar
    22    47    43    1
    23    43    42    1
    24    42     1    1
    25     1     2    3
    26     2     3    1
    27     3     4    1
    28     4     5    1
    29     5     6   ar
    30     6     7   ar
    31     7     8   ar
    32     8     9   ar
    33     9    10   ar
    34    10    11   ar
    35    11    40    1
    36    40    41    1
    37    11    12   ar
    38    12    15    1
    39    15    16   am
    40    16    17    2
    41    19    16    1
    42    19    20    1
    43    20    21    1
    44    21    22    1
    45    22    23    1
    46    23    24   am
    47    24    25    2
    48    24    26    1
    49    26    31    1
    50    31    32   am
    51    32    33    2
    52    32    35    1
    53    35    36    1
    54    35    37    1
    55    37    38    1
    56    26    27    1
    57    27    28    1
    58    27    29    1
    59    27    30    1
    60    12    13   ar
    61    13    14   ar
    62    47    48   ar
    63    48    49   ar
    64    49    50   ar
    65    50    51   ar
    66    51    52   ar
    67    52    53   ar
    68    53    79    1
    69    79    80    1
    70    65    75    1
    71    75    76    1
    72    75    77    1
    73    75    78    1
    74    64    60    1
    75    53    44   ar
    76    51    46   ar
    77    14     5   ar
    78    14     9   ar
    79    23    19    1
    80    73    74    1
    81    68    69    1
    82    56    57    1
    83    15    18    1
    84    31    34    1
    85    37    39    1
@<TRIPOS>MOLECULE
*****
 80 85 0 0 0
SMALL
GASTEIGER

@<TRIPOS>ATOM
      1 C          64.6044   92.1731   10.3922 C.1     1  UNL1       -0.0403
      2 C          63.5204   91.3112    9.8157 C.1     1  UNL1       -0.0403
      3 C          62.4364   90.4495    9.2393 C.3     1  UNL1        0.2829
      4 O          62.1092   90.5332    7.7778 O.3     1  UNL1       -0.4454
      5 C          60.7188   90.2324    7.3021 C.ar    1  UNL1        0.2286
      6 N          59.8185   89.3567    8.1223 N.ar    1  UNL1       -0.1893
      7 C          58.4281   89.0559    7.6466 C.ar    1  UNL1        0.2015
      8 N          57.9380   89.6307    6.3507 N.ar    1  UNL1       -0.2237
      9 C          58.8383   90.5063    5.5305 C.ar    1  UNL1        0.0906
     10 C          58.3482   91.0811    4.2346 C.ar    1  UNL1        0.0575
     11 C          59.2485   91.9567    3.4143 C.ar    1  UNL1        0.1535
     12 C          60.6389   92.2576    3.8901 C.ar    1  UNL1        0.0850
     13 C          61.1290   91.6828    5.1860 C.ar    1  UNL1        0.0239
     14 C          60.2287   90.8072    6.0062 C.ar    1  UNL1        0.0723
     15 N          61.5391   93.1332    3.0699 N.am    1  UNL1       -0.2802
     16 C          62.6388   92.5221    2.2529 C.2     1  UNL1        0.2443
     17 O          62.8381   91.0354    2.2561 O.2     1  UNL1       -0.2730
     18 H          61.4083   94.1089    3.0677 H       1  UNL1        0.1550
     19 C          63.5391   93.3977    1.4326 C.3     1  UNL1        0.1521
     20 C          64.8227   94.0211    1.8948 C.3     1  UNL1        0.0310
     21 C          65.3908   94.8123    0.7541 C.3     1  UNL1        0.0237
     22 C          64.4582   94.6780   -0.4131 C.3     1  UNL1        0.0939
     23 N          63.3138   93.8037    0.0063 N.am    1  UNL1       -0.2717
     24 C          62.1486   93.4053   -0.8503 C.2     1  UNL1        0.2438
     25 O          61.0741   92.5208   -0.2907 O.2     1  UNL1       -0.2731
     26 C          62.0580   93.8913   -2.2664 C.3     1  UNL1        0.1487
     27 C          60.9609   94.8324   -2.6676 C.3     1  UNL1        0.0250
     28 C          60.5685   93.9020   -3.7768 C.3     1  UNL1        0.0021
     29 C          61.3532   95.7627   -1.5584 C.3     1  UNL1        0.0021
     30 C          59.8638   95.7733   -3.0688 C.3     1  UNL1        0.0021
     31 N          63.0644   93.4364   -3.2814 N.am    1  UNL1       -0.2973
     32 C          63.9460   94.4391   -3.9650 C.2     1  UNL1        0.2370
     33 O          63.8211   95.8967   -3.6337 O.2     1  UNL1       -0.2737
     34 H          63.1464   92.4797   -3.4988 H       1  UNL1        0.1499
     35 C          64.9525   93.9843   -4.9800 C.3     1  UNL1        0.1316
     36 C          65.5306   94.9663   -5.9553 C.3     1  UNL1        0.0270
     37 N          65.3808   92.5473   -5.0195 N.3     1  UNL1       -0.2902
     38 C          65.1041   91.7154   -6.2366 C.3     1  UNL1        0.0862
     39 H          64.9242   92.0822   -4.2349 H       1  UNL1        0.1237
     40 O          58.7584   92.5315    2.1184 O.3     1  UNL1       -0.4701
     41 C          59.3280   93.8216    1.6071 C.3     1  UNL1        0.2525
     42 C          65.6884   93.0348   10.9686 C.3     1  UNL1        0.2829
     43 O          66.7936   92.4137   11.7704 O.3     1  UNL1       -0.4454
     44 C          63.7602   90.4157   14.4267 C.ar    1  UNL1        0.0850
     45 C          64.7713   91.0817   13.5413 C.ar    1  UNL1        0.0239
     46 C          65.8369   91.9506   14.1411 C.ar    1  UNL1        0.0723
     47 C          66.8480   92.6166   13.2557 C.ar    1  UNL1        0.2286
     48 N          67.9135   93.4855   13.8554 N.ar    1  UNL1       -0.1893
     49 C          67.9679   93.6883   15.3406 C.ar    1  UNL1        0.2015
     50 N          66.9567   93.0223   16.2260 N.ar    1  UNL1       -0.2237
     51 C          65.8912   92.1534   15.6263 C.ar    1  UNL1        0.0906
     52 C          64.8801   91.4874   16.5118 C.ar    1  UNL1        0.0575
     53 C          63.8146   90.6185   15.9120 C.ar    1  UNL1        0.1535
     54 C          61.8665   90.0561   12.6848 C.2     1  UNL1        0.2443
     55 O          62.1038   91.4342   12.1422 O.2     1  UNL1       -0.2730
     56 N          62.6947   89.5468   13.8270 N.am    1  UNL1       -0.2802
     57 H          62.5390   88.6422   14.1831 H       1  UNL1        0.1550
     58 C          62.2967   87.0609   11.4625 C.2     1  UNL1        0.2438
     59 O          63.5507   87.6883   11.9953 O.2     1  UNL1       -0.2731
     60 N          60.9988   87.8104   11.5232 N.am    1  UNL1       -0.2717
     61 C          59.6707   87.3147   11.0328 C.3     1  UNL1        0.0939
     62 C          58.6521   88.3851   11.2915 C.3     1  UNL1        0.0237
     63 C          59.3507   89.5423   11.9418 C.3     1  UNL1        0.0310
     64 C          60.8010   89.1871   12.0850 C.3     1  UNL1        0.1521
     65 C          62.3407   85.6841   10.8690 C.3     1  UNL1        0.1487
     66 C          62.9259   84.0214   12.7775 C.2     1  UNL1        0.2370
     67 O          64.2228   84.7398   13.0057 O.2     1  UNL1       -0.2737
     68 N          61.9849   84.4935   11.7091 N.am    1  UNL1       -0.2973
     69 H          61.1337   84.0219   11.5593 H       1  UNL1        0.1499
     70 C          62.5702   82.8307   13.6177 C.3     1  UNL1        0.1316
     71 C          62.5538   81.4604   13.0080 C.3     1  UNL1        0.0270
     72 C          62.3864   84.3556   15.7132 C.3     1  UNL1        0.0862
     73 N          62.2310   83.0106   15.0677 N.3     1  UNL1       -0.2902
     74 H          61.2527   82.7430   15.1766 H       1  UNL1        0.1237
     75 C          62.7404   85.4979    9.4353 C.3     1  UNL1        0.0250
     76 C          63.3678   84.1801    9.7814 C.3     1  UNL1        0.0021
     77 C          62.1130   86.8156    9.0892 C.3     1  UNL1        0.0021
     78 C          63.1401   85.3116    8.0016 C.3     1  UNL1        0.0021
     79 O          62.8035   89.9525   16.7975 O.3     1  UNL1       -0.4701
     80 C          62.8576   88.4693   17.0141 C.3     1  UNL1        0.2525
@<TRIPOS>BOND
     1    72    73    1
     2    73    70    1
     3    70    71    1
     4    70    66    1
     5    66    67    2
     6    66    68   am
     7    65    68    1
     8    65    58    1
     9    58    59    2
    10    58    60   am
    11    60    61    1
    12    61    62    1
    13    62    63    1
    14    63    64    1
    15    64    54    1
    16    54    55    2
    17    54    56   am
    18    56    44    1
    19    44    45   ar
    20    45    46   ar
    21    46    47   ar
    22    47    43    1
    23    43    42    1
    24    42     1    1
    25     1     2    3
    26     2     3    1
    27     3     4    1
    28     4     5    1
    29     5     6   ar
    30     6     7   ar
    31     7     8   ar
    32     8     9   ar
    33     9    10   ar
    34    10    11   ar
    35    11    40    1
    36    40    41    1
    37    11    12   ar
    38    12    15    1
    39    15    16   am
    40    16    17    2
    41    19    16    1
    42    19    20    1
    43    20    21    1
    44    21    22    1
    45    22    23    1
    46    23    24   am
    47    24    25    2
    48    24    26    1
    49    26    31    1
    50    31    32   am
    51    32    33    2
    52    32    35    1
    53    35    36    1
    54    35    37    1
    55    37    38    1
    56    26    27    1
    57    27    28    1
    58    27    29    1
    59    27    30    1
    60    12    13   ar
    61    13    14   ar
    62    47    48   ar
    63    48    49   ar
    64    49    50   ar
    65    50    51   ar
    66    51    52   ar
    67    52    53   ar
    68    53    79    1
    69    79    80    1
    70    65    75    1
    71    75    76    1
    72    75    77    1
    73    75    78    1
    74    64    60    1
    75    53    44   ar
    76    51    46   ar
    77    14     5   ar
    78    14     9   ar
    79    23    19    1
    80    73    74    1
    81    68    69    1
    82    56    57    1
    83    15    18    1
    84    31    34    1
    85    37    39    1
@<TRIPOS>MOLECULE
*****
 80 85 0 0 0
SMALL
GASTEIGER

@<TRIPOS>ATOM
      1 C          63.3383   85.6363    9.0953 C.1     1  UNL1       -0.0403
      2 C          63.6590   84.2103    9.4328 C.1     1  UNL1       -0.0403
      3 C          63.9795   82.7844    9.7702 C.3     1  UNL1        0.2829
      4 O          62.9133   81.8871   10.3252 O.3     1  UNL1       -0.4454
      5 C          62.8526   81.6173   11.7995 C.ar    1  UNL1        0.2286
      6 N          62.7007   80.2110   12.2990 N.ar    1  UNL1       -0.1893
      7 C          62.6401   79.9412   13.7732 C.ar    1  UNL1        0.2015
      8 N          62.7313   81.0776   14.7480 N.ar    1  UNL1       -0.2237
      9 C          62.8832   82.4838   14.2486 C.ar    1  UNL1        0.0906
     10 C          62.9744   83.6202   15.2234 C.ar    1  UNL1        0.0575
     11 C          63.1263   85.0265   14.7239 C.ar    1  UNL1        0.1535
     12 C          63.1870   85.2963   13.2497 C.ar    1  UNL1        0.0850
     13 C          63.0957   84.1599   12.2749 C.ar    1  UNL1        0.0239
     14 C          62.9439   82.7537   12.7743 C.ar    1  UNL1        0.0723
     15 N          63.3388   86.7025   12.7503 N.am    1  UNL1       -0.2802
     16 C          62.1977   87.3761   12.0472 C.2     1  UNL1        0.2443
     17 O          60.9048   86.6434   11.8436 O.2     1  UNL1       -0.2730
     18 H          64.1875   87.1833   12.8839 H       1  UNL1        0.1550
     19 C          62.3496   88.7823   11.5478 C.3     1  UNL1        0.1521
     20 C          61.5887   89.4020   10.4133 C.3     1  UNL1        0.0310
     21 C          62.0579   90.8184   10.2595 C.3     1  UNL1        0.0237
     22 C          63.1088   91.0741   11.2989 C.3     1  UNL1        0.0939
     23 N          63.2890   89.8157   12.0951 N.am    1  UNL1       -0.2717
     24 C          64.2415   89.6243   13.2380 C.2     1  UNL1        0.2438
     25 O          64.3115   88.3020   13.9426 O.2     1  UNL1       -0.2731
     26 C          65.1240   90.7553   13.6762 C.3     1  UNL1        0.1487
     27 C          64.9820   91.3262   15.0560 C.3     1  UNL1        0.0250
     28 C          66.4030   91.8036   15.0048 C.3     1  UNL1        0.0021
     29 C          63.5610   90.8487   15.1072 C.3     1  UNL1        0.0021
     30 C          64.8400   91.8971   16.4359 C.3     1  UNL1        0.0021
     31 N          66.1486   91.3154   12.7345 N.am    1  UNL1       -0.2973
     32 C          65.8221   92.5183   11.9001 C.2     1  UNL1        0.2370
     33 O          64.4711   93.1612   12.0073 O.2     1  UNL1       -0.2737
     34 H          67.0353   90.8934   12.6642 H       1  UNL1        0.1499
     35 C          66.8466   93.0784   10.9585 C.3     1  UNL1        0.1316
     36 C          67.0169   94.5634   10.8322 C.3     1  UNL1        0.0270
     37 N          67.7008   92.1535   10.1431 N.3     1  UNL1       -0.2902
     38 C          68.9007   92.6855    9.4170 C.3     1  UNL1        0.0862
     39 H          67.0927   91.7346    9.4395 H       1  UNL1        0.1237
     40 O          63.2175   86.1629   15.6988 O.3     1  UNL1       -0.4701
     41 C          62.6562   86.0117   17.0816 C.3     1  UNL1        0.2525
     42 C          63.0178   87.0623    8.7579 C.3     1  UNL1        0.2829
     43 O          62.2222   87.3811    7.5269 O.3     1  UNL1       -0.4454
     44 C          60.1024   90.7113    5.3668 C.ar    1  UNL1        0.0850
     45 C          60.8090   89.6012    6.0868 C.ar    1  UNL1        0.0239
     46 C          60.0222   88.6068    6.8881 C.ar    1  UNL1        0.0723
     47 C          60.7288   87.4967    7.6082 C.ar    1  UNL1        0.2286
     48 N          59.9421   86.5022    8.4095 N.ar    1  UNL1       -0.1893
     49 C          58.4488   86.6178    8.4907 C.ar    1  UNL1        0.2015
     50 N          57.7422   87.7279    7.7707 N.ar    1  UNL1       -0.2237
     51 C          58.5289   88.7224    6.9694 C.ar    1  UNL1        0.0906
     52 C          57.8223   89.8325    6.2493 C.ar    1  UNL1        0.0575
     53 C          58.6090   90.8269    5.4481 C.ar    1  UNL1        0.1535
     54 C          61.8639   91.2308    3.5292 C.2     1  UNL1        0.2443
     55 O          62.0521   89.7614    3.2940 O.2     1  UNL1       -0.2730
     56 N          60.8891   91.7058    4.5655 N.am    1  UNL1       -0.2802
     57 H          60.7656   92.6703    4.7198 H       1  UNL1        0.1550
     58 C          60.7299   93.0220    1.0482 C.2     1  UNL1        0.2438
     59 O          59.7076   92.1106    1.6599 O.2     1  UNL1       -0.2731
     60 N          62.1293   93.0487    1.5875 N.am    1  UNL1       -0.2717
     61 C          63.2533   93.9034    1.0811 C.3     1  UNL1        0.0939
     62 C          64.4692   93.6082    1.9085 C.3     1  UNL1        0.0237
     63 C          64.0967   92.5712    2.9263 C.3     1  UNL1        0.0310
     64 C          62.6507   92.2254    2.7279 C.3     1  UNL1        0.1521
     65 C          60.3528   93.9068   -0.1028 C.3     1  UNL1        0.1487
     66 C          58.2168   93.1489   -1.3728 C.2     1  UNL1        0.2370
     67 O          57.3736   93.5694   -0.2057 O.2     1  UNL1       -0.2737
     68 N          59.7064   93.3175   -1.3214 N.am    1  UNL1       -0.2973
     69 H          60.2598   93.0415   -2.0874 H       1  UNL1        0.1499
     70 C          57.5703   92.5596   -2.5914 C.3     1  UNL1        0.1316
     71 C          58.2129   92.7266   -3.9364 C.3     1  UNL1        0.0270
     72 C          55.9874   90.6614   -3.3922 C.3     1  UNL1        0.0862
     73 N          56.2812   91.8032   -2.4648 N.3     1  UNL1       -0.2902
     74 H          56.2520   91.4277   -1.5169 H       1  UNL1        0.1237
     75 C          60.6220   95.3809   -0.0353 C.3     1  UNL1        0.0250
     76 C          59.8365   95.4660    1.2397 C.3     1  UNL1        0.0021
     77 C          61.4076   95.2958   -1.3103 C.3     1  UNL1        0.0021
     78 C          60.8913   96.8550    0.0323 C.3     1  UNL1        0.0021
     79 O          57.9024   91.9370    4.7280 O.3     1  UNL1       -0.4701
     80 C          56.4055   91.9355    4.6323 C.3     1  UNL1        0.2525
@<TRIPOS>BOND
     1    72    73    1
     2    73    70    1
     3    70    71    1
     4    70    66    1
     5    66    67    2
     6    66    68   am
     7    65    68    1
     8    65    58    1
     9    58    59    2
    10    58    60   am
    11    60    61    1
    12    61    62    1
    13    62    63    1
    14    63    64    1
    15    64    54    1
    16    54    55    2
    17    54    56   am
    18    56    44    1
    19    44    45   ar
    20    45    46   ar
    21    46    47   ar
    22    47    43    1
    23    43    42    1
    24    42     1    1
    25     1     2    3
    26     2     3    1
    27     3     4    1
    28     4     5    1
    29     5     6   ar
    30     6     7   ar
    31     7     8   ar
    32     8     9   ar
    33     9    10   ar
    34    10    11   ar
    35    11    40    1
    36    40    41    1
    37    11    12   ar
    38    12    15    1
    39    15    16   am
    40    16    17    2
    41    19    16    1
    42    19    20    1
    43    20    21    1
    44    21    22    1
    45    22    23    1
    46    23    24   am
    47    24    25    2
    48    24    26    1
    49    26    31    1
    50    31    32   am
    51    32    33    2
    52    32    35    1
    53    35    36    1
    54    35    37    1
    55    37    38    1
    56    26    27    1
    57    27    28    1
    58    27    29    1
    59    27    30    1
    60    12    13   ar
    61    13    14   ar
    62    47    48   ar
    63    48    49   ar
    64    49    50   ar
    65    50    51   ar
    66    51    52   ar
    67    52    53   ar
    68    53    79    1
    69    79    80    1
    70    65    75    1
    71    75    76    1
    72    75    77    1
    73    75    78    1
    74    64    60    1
    75    53    44   ar
    76    51    46   ar
    77    14     5   ar
    78    14     9   ar
    79    23    19    1
    80    73    74    1
    81    68    69    1
    82    56    57    1
    83    15    18    1
    84    31    34    1
    85    37    39    1
@<TRIPOS>MOLECULE
*****
 80 85 0 0 0
SMALL
GASTEIGER

@<TRIPOS>ATOM
      1 C          64.4061   92.2520   10.1920 C.1     1  UNL1       -0.0403
      2 C          63.3505   91.3902    9.5648 C.1     1  UNL1       -0.0403
      3 C          62.2950   90.5285    8.9377 C.3     1  UNL1        0.2829
      4 O          62.0486   90.6004    7.4598 O.3     1  UNL1       -0.4454
      5 C          60.6665   90.3838    6.9185 C.ar    1  UNL1        0.2286
      6 N          59.7094   89.4848    7.6437 N.ar    1  UNL1       -0.1893
      7 C          58.3273   89.2682    7.1024 C.ar    1  UNL1        0.2015
      8 N          57.9024   89.9506    5.8360 N.ar    1  UNL1       -0.2237
      9 C          58.8594   90.8496    5.1109 C.ar    1  UNL1        0.0906
     10 C          58.4344   91.5320    3.8445 C.ar    1  UNL1        0.0575
     11 C          59.3916   92.4310    3.1194 C.ar    1  UNL1        0.1535
     12 C          60.7736   92.6476    3.6607 C.ar    1  UNL1        0.0850
     13 C          61.1986   91.9652    4.9271 C.ar    1  UNL1        0.0239
     14 C          60.2415   91.0662    5.6522 C.ar    1  UNL1        0.0723
     15 N          61.7307   93.5466    2.9356 N.am    1  UNL1       -0.2802
     16 C          62.7339   92.9633    1.9850 C.2     1  UNL1        0.2443
     17 O          62.7799   91.4811    1.7596 O.2     1  UNL1       -0.2730
     18 H          61.7004   94.5194    3.0835 H       1  UNL1        0.1550
     19 C          63.6909   93.8623    1.2599 C.3     1  UNL1        0.1521
     20 C          64.9615   94.4312    1.8184 C.3     1  UNL1        0.0310
     21 C          65.6013   95.2707    0.7527 C.3     1  UNL1        0.0237
     22 C          64.7261   95.2207   -0.4646 C.3     1  UNL1        0.0939
     23 N          63.5455   94.3502   -0.1511 N.am    1  UNL1       -0.2717
     24 C          62.4174   94.0248   -1.0846 C.2     1  UNL1        0.2438
     25 O          61.2993   93.1350   -0.6285 O.2     1  UNL1       -0.2731
     26 C          62.4075   94.5891   -2.4744 C.3     1  UNL1        0.1487
     27 C          63.5021   94.2330   -3.4363 C.3     1  UNL1        0.0250
     28 C          63.6939   95.6859   -3.7559 C.3     1  UNL1        0.0021
     29 C          63.3103   92.7801   -3.1166 C.3     1  UNL1        0.0021
     30 C          64.5966   93.8769   -4.3981 C.3     1  UNL1        0.0021
     31 N          61.3031   95.5095   -2.9022 N.am    1  UNL1       -0.2973
     32 C          60.0027   94.9440   -3.3912 C.2     1  UNL1        0.2370
     33 O          59.8067   93.4581   -3.4522 O.2     1  UNL1       -0.2737
     34 H          61.4317   96.4848   -2.8622 H       1  UNL1        0.1499
     35 C          58.8982   95.8644   -3.8190 C.3     1  UNL1        0.1316
     36 C          58.9945   96.5951   -5.1255 C.3     1  UNL1        0.0270
     37 N          57.6973   96.0540   -2.9404 N.3     1  UNL1       -0.2902
     38 C          57.7269   95.5806   -1.5174 C.3     1  UNL1        0.0862
     39 H          56.9211   95.5728   -3.3947 H       1  UNL1        0.1237
     40 O          58.9666   93.1134    1.8530 O.3     1  UNL1       -0.4701
     41 C          58.7618   92.3121    0.6016 C.3     1  UNL1        0.2525
     42 C          65.4616   93.1137   10.8191 C.3     1  UNL1        0.2829
     43 O          66.5650   92.4861   11.6181 O.3     1  UNL1       -0.4454
     44 C          63.5965   90.1974   14.1081 C.ar    1  UNL1        0.0850
     45 C          64.5860   90.9603   13.2781 C.ar    1  UNL1        0.0239
     46 C          65.5890   91.8565   13.9422 C.ar    1  UNL1        0.0723
     47 C          66.5785   92.6194   13.1122 C.ar    1  UNL1        0.2286
     48 N          67.5814   93.5156   13.7762 N.ar    1  UNL1       -0.1893
     49 C          67.5949   93.6488   15.2702 C.ar    1  UNL1        0.2015
     50 N          66.6053   92.8859   16.1001 N.ar    1  UNL1       -0.2237
     51 C          65.6024   91.9898   15.4361 C.ar    1  UNL1        0.0906
     52 C          64.6129   91.2269   16.2661 C.ar    1  UNL1        0.0575
     53 C          63.6100   90.3307   15.6021 C.ar    1  UNL1        0.1535
     54 C          61.7325   89.8306   12.3357 C.2     1  UNL1        0.2443
     55 O          61.8745   91.2563   11.8914 O.2     1  UNL1       -0.2730
     56 N          62.5936   89.3012   13.4440 N.am    1  UNL1       -0.2802
     57 H          62.5004   88.3655   13.7356 H       1  UNL1        0.1550
     58 C          62.2804   86.7938   11.2740 C.2     1  UNL1        0.2438
     59 O          63.4777   87.4471   11.8984 O.2     1  UNL1       -0.2731
     60 N          60.9815   87.5385   11.1837 N.am    1  UNL1       -0.2717
     61 C          59.7062   87.0180   10.5895 C.3     1  UNL1        0.0939
     62 C          58.6663   88.0923   10.7104 C.3     1  UNL1        0.0237
     63 C          59.2988   89.2766   11.3792 C.3     1  UNL1        0.0310
     64 C          60.7296   88.9344   11.6717 C.3     1  UNL1        0.1521
     65 C          62.3821   85.3958   10.7399 C.3     1  UNL1        0.1487
     66 C          62.9356   83.8560   12.7579 C.2     1  UNL1        0.2370
     67 O          64.1829   84.6471   13.0195 O.2     1  UNL1       -0.2737
     68 N          62.0352   84.2304   11.6182 N.am    1  UNL1       -0.2973
     69 H          61.2166   83.7111   11.4465 H       1  UNL1        0.1499
     70 C          62.5888   82.6905   13.6362 C.3     1  UNL1        0.1316
     71 C          62.1804   81.3842   13.0225 C.3     1  UNL1        0.0270
     72 C          62.2814   84.1339   15.7745 C.3     1  UNL1        0.0862
     73 N          62.6503   82.8315   15.1283 N.3     1  UNL1       -0.2902
     74 H          62.0276   82.1232   15.5169 H       1  UNL1        0.1237
     75 C          62.8308   85.1633    9.3276 C.3     1  UNL1        0.0250
     76 C          63.4218   83.8454    9.7323 C.3     1  UNL1        0.0021
     77 C          62.2398   86.4813    8.9229 C.3     1  UNL1        0.0021
     78 C          63.2794   84.9308    7.9153 C.3     1  UNL1        0.0021
     79 O          62.6205   89.5678   16.4321 O.3     1  UNL1       -0.4701
     80 C          62.9656   88.2000   16.9418 C.3     1  UNL1        0.2525
@<TRIPOS>BOND
     1    72    73    1
     2    73    70    1
     3    70    71    1
     4    70    66    1
     5    66    67    2
     6    66    68   am
     7    65    68    1
     8    65    58    1
     9    58    59    2
    10    58    60   am
    11    60    61    1
    12    61    62    1
    13    62    63    1
    14    63    64    1
    15    64    54    1
    16    54    55    2
    17    54    56   am
    18    56    44    1
    19    44    45   ar
    20    45    46   ar
    21    46    47   ar
    22    47    43    1
    23    43    42    1
    24    42     1    1
    25     1     2    3
    26     2     3    1
    27     3     4    1
    28     4     5    1
    29     5     6   ar
    30     6     7   ar
    31     7     8   ar
    32     8     9   ar
    33     9    10   ar
    34    10    11   ar
    35    11    40    1
    36    40    41    1
    37    11    12   ar
    38    12    15    1
    39    15    16   am
    40    16    17    2
    41    19    16    1
    42    19    20    1
    43    20    21    1
    44    21    22    1
    45    22    23    1
    46    23    24   am
    47    24    25    2
    48    24    26    1
    49    26    31    1
    50    31    32   am
    51    32    33    2
    52    32    35    1
    53    35    36    1
    54    35    37    1
    55    37    38    1
    56    26    27    1
    57    27    28    1
    58    27    29    1
    59    27    30    1
    60    12    13   ar
    61    13    14   ar
    62    47    48   ar
    63    48    49   ar
    64    49    50   ar
    65    50    51   ar
    66    51    52   ar
    67    52    53   ar
    68    53    79    1
    69    79    80    1
    70    65    75    1
    71    75    76    1
    72    75    77    1
    73    75    78    1
    74    64    60    1
    75    53    44   ar
    76    51    46   ar
    77    14     5   ar
    78    14     9   ar
    79    23    19    1
    80    73    74    1
    81    68    69    1
    82    56    57    1
    83    15    18    1
    84    31    34    1
    85    37    39    1
@<TRIPOS>MOLECULE
*****
 80 85 0 0 0
SMALL
GASTEIGER

@<TRIPOS>ATOM
      1 C          62.9358   84.7997   10.0767 C.1     1  UNL1       -0.0403
      2 C          62.7876   86.2371    9.6741 C.1     1  UNL1       -0.0403
      3 C          62.6393   87.6744    9.2716 C.3     1  UNL1        0.2829
      4 O          62.0590   88.0223    7.9328 O.3     1  UNL1       -0.4454
      5 C          60.5710   88.0652    7.7487 C.ar    1  UNL1        0.2286
      6 N          59.6954   87.0976    8.4885 N.ar    1  UNL1       -0.1893
      7 C          58.2074   87.1405    8.3043 C.ar    1  UNL1        0.2015
      8 N          57.5949   88.1509    7.3803 N.ar    1  UNL1       -0.2237
      9 C          58.4704   89.1185    6.6405 C.ar    1  UNL1        0.0906
     10 C          57.8578   90.1289    5.7165 C.ar    1  UNL1        0.0575
     11 C          58.7333   91.0965    4.9766 C.ar    1  UNL1        0.1535
     12 C          60.2213   91.0536    5.1608 C.ar    1  UNL1        0.0850
     13 C          60.8339   90.0432    6.0848 C.ar    1  UNL1        0.0239
     14 C          59.9584   89.0756    6.8246 C.ar    1  UNL1        0.0723
     15 N          61.0968   92.0211    4.4210 N.am    1  UNL1       -0.2802
     16 C          62.0422   91.5234    3.3681 C.2     1  UNL1        0.2443
     17 O          62.1121   90.0581    3.0551 O.2     1  UNL1       -0.2730
     18 H          61.0509   92.9829    4.6264 H       1  UNL1        0.1550
     19 C          62.9176   92.4909    2.6282 C.3     1  UNL1        0.1521
     20 C          64.2148   93.0607    3.1208 C.3     1  UNL1        0.0310
     21 C          64.7485   93.9805    2.0630 C.3     1  UNL1        0.0237
     22 C          63.7812   93.9792    0.9165 C.3     1  UNL1        0.0939
     23 N          62.6497   93.0586    1.2659 N.am    1  UNL1       -0.2717
     24 C          61.4591   92.7584    0.4042 C.2     1  UNL1        0.2438
     25 O          60.4016   91.8117    0.8895 O.2     1  UNL1       -0.2731
     26 C          61.3261   93.4048   -0.9428 C.3     1  UNL1        0.1487
     27 C          60.1402   94.2725   -1.2444 C.3     1  UNL1        0.0250
     28 C          60.4336   95.0968   -0.0260 C.3     1  UNL1        0.0021
     29 C          59.8469   93.4482   -2.4627 C.3     1  UNL1        0.0021
     30 C          58.9544   95.1402   -1.5459 C.3     1  UNL1        0.0021
     31 N          62.3789   93.1837   -1.9881 N.am    1  UNL1       -0.2973
     32 C          63.2120   94.3347   -2.4687 C.2     1  UNL1        0.2370
     33 O          62.9923   95.7069   -1.9041 O.2     1  UNL1       -0.2737
     34 H          62.5231   92.2830   -2.3587 H       1  UNL1        0.1499
     35 C          64.2648   94.1136   -3.5141 C.3     1  UNL1        0.1316
     36 C          64.8565   95.2840   -4.2421 C.3     1  UNL1        0.0270
     37 N          64.7259   92.7220   -3.8314 N.3     1  UNL1       -0.2902
     38 C          64.7960   92.2620   -5.2574 C.3     1  UNL1        0.0862
     39 H          64.0937   92.0847   -3.3472 H       1  UNL1        0.1237
     40 O          58.1208   92.1069    4.0526 O.3     1  UNL1       -0.4701
     41 C          58.9809   92.8392    3.0657 C.3     1  UNL1        0.2525
     42 C          63.0841   83.3623   10.4792 C.3     1  UNL1        0.2829
     43 O          64.1126   82.9712   11.4987 O.3     1  UNL1       -0.4454
     44 C          63.8946   86.8474   13.7741 C.ar    1  UNL1        0.0850
     45 C          63.9673   85.5554   13.0157 C.ar    1  UNL1        0.0239
     46 C          63.6868   84.2583   13.7151 C.ar    1  UNL1        0.0723
     47 C          63.7594   82.9663   12.9566 C.ar    1  UNL1        0.2286
     48 N          63.4790   81.6693   13.6559 N.ar    1  UNL1       -0.1893
     49 C          63.1259   81.6643   15.1137 C.ar    1  UNL1        0.2015
     50 N          63.0533   82.9564   15.8722 N.ar    1  UNL1       -0.2237
     51 C          63.3337   84.2534   15.1729 C.ar    1  UNL1        0.0906
     52 C          63.2611   85.5454   15.9314 C.ar    1  UNL1        0.0575
     53 C          63.5415   86.8424   15.2320 C.ar    1  UNL1        0.1535
     54 C          63.0632   88.8838   12.3915 C.2     1  UNL1        0.2443
     55 O          61.6708   88.3262   12.4075 O.2     1  UNL1       -0.2730
     56 N          64.1751   88.1444   13.0748 N.am    1  UNL1       -0.2802
     57 H          65.0890   88.5104   13.0643 H       1  UNL1        0.1550
     58 C          65.0826   91.2265   13.4323 C.2     1  UNL1        0.2438
     59 O          65.0044   90.0386   14.3449 O.2     1  UNL1       -0.2731
     60 N          64.2719   91.2576   12.1706 N.am    1  UNL1       -0.2717
     61 C          64.2472   92.3712   11.1658 C.3     1  UNL1        0.0939
     62 C          63.3036   91.9825   10.0664 C.3     1  UNL1        0.0237
     63 C          62.7452   90.6288   10.3917 C.3     1  UNL1        0.0310
     64 C          63.3437   90.1809   11.6922 C.3     1  UNL1        0.1521
     65 C          65.9715   92.3832   13.7814 C.3     1  UNL1        0.1487
     66 C          66.5313   93.9576   11.7920 C.2     1  UNL1        0.2370
     67 O          67.4268   92.9042   11.2103 O.2     1  UNL1       -0.2737
     68 N          65.8037   93.6972   13.0775 N.am    1  UNL1       -0.2973
     69 H          65.2159   94.3886   13.4593 H       1  UNL1        0.1499
     70 C          66.3635   95.2716   11.0881 C.3     1  UNL1        0.1316
     71 C          66.2397   96.5377   11.8827 C.3     1  UNL1        0.0270
     72 C          67.5586   95.0349    8.7934 C.3     1  UNL1        0.0862
     73 N          66.3195   95.3193    9.5895 N.3     1  UNL1       -0.2902
     74 H          65.6174   94.6410    9.2938 H       1  UNL1        0.1237
     75 C          67.0282   92.2260   14.8342 C.3     1  UNL1        0.0250
     76 C          67.9528   91.6261   13.8167 C.3     1  UNL1        0.0021
     77 C          66.1037   92.8259   15.8518 C.3     1  UNL1        0.0021
     78 C          68.0850   92.0688   15.8871 C.3     1  UNL1        0.0021
     79 O          63.4689   88.1345   15.9905 O.3     1  UNL1       -0.4701
     80 C          62.9995   88.1425   17.4151 C.3     1  UNL1        0.2525
@<TRIPOS>BOND
     1    72    73    1
     2    73    70    1
     3    70    71    1
     4    70    66    1
     5    66    67    2
     6    66    68   am
     7    65    68    1
     8    65    58    1
     9    58    59    2
    10    58    60   am
    11    60    61    1
    12    61    62    1
    13    62    63    1
    14    63    64    1
    15    64    54    1
    16    54    55    2
    17    54    56   am
    18    56    44    1
    19    44    45   ar
    20    45    46   ar
    21    46    47   ar
    22    47    43    1
    23    43    42    1
    24    42     1    1
    25     1     2    3
    26     2     3    1
    27     3     4    1
    28     4     5    1
    29     5     6   ar
    30     6     7   ar
    31     7     8   ar
    32     8     9   ar
    33     9    10   ar
    34    10    11   ar
    35    11    40    1
    36    40    41    1
    37    11    12   ar
    38    12    15    1
    39    15    16   am
    40    16    17    2
    41    19    16    1
    42    19    20    1
    43    20    21    1
    44    21    22    1
    45    22    23    1
    46    23    24   am
    47    24    25    2
    48    24    26    1
    49    26    31    1
    50    31    32   am
    51    32    33    2
    52    32    35    1
    53    35    36    1
    54    35    37    1
    55    37    38    1
    56    26    27    1
    57    27    28    1
    58    27    29    1
    59    27    30    1
    60    12    13   ar
    61    13    14   ar
    62    47    48   ar
    63    48    49   ar
    64    49    50   ar
    65    50    51   ar
    66    51    52   ar
    67    52    53   ar
    68    53    79    1
    69    79    80    1
    70    65    75    1
    71    75    76    1
    72    75    77    1
    73    75    78    1
    74    64    60    1
    75    53    44   ar
    76    51    46   ar
    77    14     5   ar
    78    14     9   ar
    79    23    19    1
    80    73    74    1
    81    68    69    1
    82    56    57    1
    83    15    18    1
    84    31    34    1
    85    37    39    1
@<TRIPOS>MOLECULE
*****
 80 85 0 0 0
SMALL
GASTEIGER

@<TRIPOS>ATOM
      1 C          62.1614   85.7175    8.8529 C.1     1  UNL1       -0.0403
      2 C          61.2675   86.3883    7.8523 C.1     1  UNL1       -0.0403
      3 C          60.3736   87.0590    6.8518 C.3     1  UNL1        0.2829
      4 O          60.3847   88.5531    6.7191 O.3     1  UNL1       -0.4454
      5 C          59.1230   89.2842    6.3677 C.ar    1  UNL1        0.2286
      6 N          57.8208   88.8747    6.9896 N.ar    1  UNL1       -0.1893
      7 C          56.5591   89.6058    6.6382 C.ar    1  UNL1        0.2015
      8 N          56.5994   90.7463    5.6648 N.ar    1  UNL1       -0.2237
      9 C          57.9015   91.1558    5.0428 C.ar    1  UNL1        0.0906
     10 C          57.9419   92.2964    4.0694 C.ar    1  UNL1        0.0575
     11 C          59.2441   92.7058    3.4475 C.ar    1  UNL1        0.1535
     12 C          60.5058   91.9747    3.7989 C.ar    1  UNL1        0.0850
     13 C          60.4654   90.8342    4.7723 C.ar    1  UNL1        0.0239
     14 C          59.1633   90.4247    5.3943 C.ar    1  UNL1        0.0723
     15 N          61.8079   92.3842    3.1770 N.am    1  UNL1       -0.2802
     16 C          61.9628   92.3729    1.6850 C.2     1  UNL1        0.2443
     17 O          60.8156   91.9522    0.8150 O.2     1  UNL1       -0.2730
     18 H          62.5608   92.6604    3.7480 H       1  UNL1        0.1550
     19 C          63.2649   92.7824    1.0631 C.3     1  UNL1        0.1521
     20 C          64.6192   92.6693    1.6978 C.3     1  UNL1        0.0310
     21 C          65.6326   93.1939    0.7242 C.3     1  UNL1        0.0237
     22 C          64.9046   93.6312   -0.5123 C.3     1  UNL1        0.0939
     23 N          63.4412   93.3769   -0.3028 N.am    1  UNL1       -0.2717
     24 C          62.3464   93.6662   -1.2865 C.2     1  UNL1        0.2438
     25 O          60.9214   93.3566   -0.9353 O.2     1  UNL1       -0.2731
     26 C          62.6767   94.2651   -2.6215 C.3     1  UNL1        0.1487
     27 C          63.8213   93.7220   -3.4247 C.3     1  UNL1        0.0250
     28 C          63.2087   92.3538   -3.3722 C.3     1  UNL1        0.0021
     29 C          64.4337   95.0902   -3.4771 C.3     1  UNL1        0.0021
     30 C          64.9658   93.1788   -4.2278 C.3     1  UNL1        0.0021
     31 N          61.8625   95.4072   -3.1533 N.am    1  UNL1       -0.2973
     32 C          60.5612   95.1400   -3.8499 C.2     1  UNL1        0.2370
     33 O          60.0742   93.7309   -4.0148 O.2     1  UNL1       -0.2737
     34 H          62.1821   96.3320   -3.0451 H       1  UNL1        0.1499
     35 C          59.7469   96.2820   -4.3817 C.3     1  UNL1        0.1316
     36 C          60.0502   96.8533   -5.7351 C.3     1  UNL1        0.0270
     37 N          58.6292   96.8527   -3.5601 N.3     1  UNL1       -0.2902
     38 C          57.2052   96.6429   -3.9823 C.3     1  UNL1        0.0862
     39 H          58.7788   97.8608   -3.5193 H       1  UNL1        0.1237
     40 O          59.2845   93.8464    2.4741 O.3     1  UNL1       -0.4701
     41 C          60.3645   94.8823    2.5769 C.3     1  UNL1        0.2525
     42 C          63.0552   85.0468    9.8534 C.3     1  UNL1        0.2829
     43 O          63.4503   83.6123    9.6632 O.3     1  UNL1       -0.4454
     44 C          62.7084   85.0569   13.8599 C.ar    1  UNL1        0.0850
     45 C          62.9557   84.5754   12.4610 C.ar    1  UNL1        0.0239
     46 C          62.9912   83.1043   12.1694 C.ar    1  UNL1        0.0723
     47 C          63.2385   82.6228   10.7705 C.ar    1  UNL1        0.2286
     48 N          63.2739   81.1519   10.4789 N.ar    1  UNL1       -0.1893
     49 C          63.0621   80.1625   11.5862 C.ar    1  UNL1        0.2015
     50 N          62.8148   80.6440   12.9851 N.ar    1  UNL1       -0.2237
     51 C          62.7793   82.1150   13.2767 C.ar    1  UNL1        0.0906
     52 C          62.5320   82.5965   14.6757 C.ar    1  UNL1        0.0575
     53 C          62.4966   84.0674   14.9673 C.ar    1  UNL1        0.1535
     54 C          63.9188   87.2343   14.5975 C.2     1  UNL1        0.2443
     55 O          65.2001   86.4698   14.7518 O.2     1  UNL1       -0.2730
     56 N          62.6730   86.5278   14.1515 N.am    1  UNL1       -0.2802
     57 H          61.8320   87.0296   14.0503 H       1  UNL1        0.1550
     58 C          63.0660   89.5852   12.5010 C.2     1  UNL1        0.2438
     59 O          63.0053   88.2020   11.9241 O.2     1  UNL1       -0.2731
     60 N          63.4913   89.7858   13.9254 N.am    1  UNL1       -0.2717
     61 C          63.5993   91.1024   14.6363 C.3     1  UNL1        0.0939
     62 C          64.0581   90.8353   16.0393 C.3     1  UNL1        0.0237
     63 C          64.2336   89.3538   16.1955 C.3     1  UNL1        0.0310
     64 C          63.8833   88.7053   14.8891 C.3     1  UNL1        0.1521
     65 C          62.7013   90.7680   11.6536 C.3     1  UNL1        0.1487
     66 C          64.8384   92.2345   11.4765 C.2     1  UNL1        0.2370
     67 O          65.5855   91.0749   10.8874 O.2     1  UNL1       -0.2737
     68 N          63.3964   92.0811   11.8596 N.am    1  UNL1       -0.2973
     69 H          62.9061   92.8423   12.2463 H       1  UNL1        0.1499
     70 C          65.5336   93.5477   11.6826 C.3     1  UNL1        0.1316
     71 C          66.3953   93.7586   12.8921 C.3     1  UNL1        0.0270
     72 C          66.5597   95.4398   10.2275 C.3     1  UNL1        0.0862
     73 N          65.3671   94.6500   10.6789 N.3     1  UNL1       -0.2902
     74 H          64.9596   94.2289    9.8440 H       1  UNL1        0.1237
     75 C          61.6415   90.6375   10.6001 C.3     1  UNL1        0.0250
     76 C          62.6418   91.0131    9.5473 C.3     1  UNL1        0.0021
     77 C          60.6412   90.2619   11.6528 C.3     1  UNL1        0.0021
     78 C          60.5818   90.5070    9.5466 C.3     1  UNL1        0.0021
     79 O          62.2493   84.5489   16.3662 O.3     1  UNL1       -0.4701
     80 C          63.2993   85.3461   17.0816 C.3     1  UNL1        0.2525
@<TRIPOS>BOND
     1    72    73    1
     2    73    70    1
     3    70    71    1
     4    70    66    1
     5    66    67    2
     6    66    68   am
     7    65    68    1
     8    65    58    1
     9    58    59    2
    10    58    60   am
    11    60    61    1
    12    61    62    1
    13    62    63    1
    14    63    64    1
    15    64    54    1
    16    54    55    2
    17    54    56   am
    18    56    44    1
    19    44    45   ar
    20    45    46   ar
    21    46    47   ar
    22    47    43    1
    23    43    42    1
    24    42     1    1
    25     1     2    3
    26     2     3    1
    27     3     4    1
    28     4     5    1
    29     5     6   ar
    30     6     7   ar
    31     7     8   ar
    32     8     9   ar
    33     9    10   ar
    34    10    11   ar
    35    11    40    1
    36    40    41    1
    37    11    12   ar
    38    12    15    1
    39    15    16   am
    40    16    17    2
    41    19    16    1
    42    19    20    1
    43    20    21    1
    44    21    22    1
    45    22    23    1
    46    23    24   am
    47    24    25    2
    48    24    26    1
    49    26    31    1
    50    31    32   am
    51    32    33    2
    52    32    35    1
    53    35    36    1
    54    35    37    1
    55    37    38    1
    56    26    27    1
    57    27    28    1
    58    27    29    1
    59    27    30    1
    60    12    13   ar
    61    13    14   ar
    62    47    48   ar
    63    48    49   ar
    64    49    50   ar
    65    50    51   ar
    66    51    52   ar
    67    52    53   ar
    68    53    79    1
    69    79    80    1
    70    65    75    1
    71    75    76    1
    72    75    77    1
    73    75    78    1
    74    64    60    1
    75    53    44   ar
    76    51    46   ar
    77    14     5   ar
    78    14     9   ar
    79    23    19    1
    80    73    74    1
    81    68    69    1
    82    56    57    1
    83    15    18    1
    84    31    34    1
    85    37    39    1
@<TRIPOS>MOLECULE
*****
 80 85 0 0 0
SMALL
GASTEIGER

@<TRIPOS>ATOM
      1 C          61.0785   90.3777   11.5136 C.1     1  UNL1       -0.0403
      2 C          62.5195   90.5769   11.1475 C.1     1  UNL1       -0.0403
      3 C          63.9604   90.7762   10.7816 C.3     1  UNL1        0.2829
      4 O          64.3690   91.9657    9.9641 O.3     1  UNL1       -0.4454
      5 C          65.1570   93.0748   10.5957 C.ar    1  UNL1        0.2286
      6 N          65.5106   94.2935    9.7957 N.ar    1  UNL1       -0.1893
      7 C          66.2986   95.4026   10.4272 C.ar    1  UNL1        0.2015
      8 N          66.7330   95.2931   11.8587 N.ar    1  UNL1       -0.2237
      9 C          66.3795   94.0745   12.6587 C.ar    1  UNL1        0.0906
     10 C          66.8140   93.9650   14.0902 C.ar    1  UNL1        0.0575
     11 C          66.4605   92.7463   14.8902 C.ar    1  UNL1        0.1535
     12 C          65.6725   91.6372   14.2587 C.ar    1  UNL1        0.0850
     13 C          65.2380   91.7467   12.8272 C.ar    1  UNL1        0.0239
     14 C          65.5915   92.9653   12.0272 C.ar    1  UNL1        0.0723
     15 N          65.3190   90.4186   15.0587 N.am    1  UNL1       -0.2802
     16 C          63.8850   89.9992   15.1924 C.2     1  UNL1        0.2443
     17 O          62.8046   90.7984   14.5260 O.2     1  UNL1       -0.2730
     18 H          66.0281   89.8941   15.4960 H       1  UNL1        0.1550
     19 C          63.5315   88.7806   15.9923 C.3     1  UNL1        0.1521
     20 C          63.0216   88.7693   17.4030 C.3     1  UNL1        0.0310
     21 C          62.8008   87.3411   17.8046 C.3     1  UNL1        0.0237
     22 C          63.1742   86.4696   16.6422 C.3     1  UNL1        0.0939
     23 N          63.6258   87.3593   15.5222 N.am    1  UNL1       -0.2717
     24 C          64.0901   86.9071   14.1694 C.2     1  UNL1        0.2438
     25 O          64.5135   87.9178   13.1452 O.2     1  UNL1       -0.2731
     26 C          64.1310   85.4441   13.8409 C.3     1  UNL1        0.1487
     27 C          64.4393   84.4427   14.9145 C.3     1  UNL1        0.0250
     28 C          63.0052   84.0028   14.9158 C.3     1  UNL1        0.0021
     29 C          65.8732   84.8827   14.9131 C.3     1  UNL1        0.0021
     30 C          64.7475   83.4414   15.9880 C.3     1  UNL1        0.0021
     31 N          63.8636   84.9824   12.4390 N.am    1  UNL1       -0.2973
     32 C          64.3023   83.6159   12.0030 C.2     1  UNL1        0.2370
     33 O          65.0083   82.7110   12.9688 O.2     1  UNL1       -0.2737
     34 H          63.4003   85.5763   11.8051 H       1  UNL1        0.1499
     35 C          64.0350   83.1541   10.6011 C.3     1  UNL1        0.1316
     36 C          64.1633   84.1160    9.4572 C.3     1  UNL1        0.0270
     37 N          63.6394   81.7304   10.3430 N.3     1  UNL1       -0.2902
     38 C          62.8175   80.9856   11.3528 C.3     1  UNL1        0.0862
     39 H          64.5034   81.2025   10.2194 H       1  UNL1        0.1237
     40 O          66.8950   92.6369   16.3217 O.3     1  UNL1       -0.4701
     41 C          68.3393   92.4012   16.6512 C.3     1  UNL1        0.2525
     42 C          59.6375   90.1784   11.8795 C.3     1  UNL1        0.2829
     43 O          59.1022   88.7933   12.0918 O.3     1  UNL1       -0.4454
     44 C          59.5685   87.5970    7.7789 C.ar    1  UNL1        0.0850
     45 C          59.4131   87.9958    9.2165 C.ar    1  UNL1        0.0239
     46 C          60.0947   87.2034   10.2925 C.ar    1  UNL1        0.0723
     47 C          59.9392   87.6022   11.7301 C.ar    1  UNL1        0.2286
     48 N          60.6208   86.8099   12.8061 N.ar    1  UNL1       -0.1893
     49 C          61.4577   85.6189   12.4444 C.ar    1  UNL1        0.2015
     50 N          61.6131   85.2201   11.0068 N.ar    1  UNL1       -0.2237
     51 C          60.9316   86.0124    9.9308 C.ar    1  UNL1        0.0906
     52 C          61.0870   85.6136    8.4932 C.ar    1  UNL1        0.0575
     53 C          60.4055   86.4059    7.4172 C.ar    1  UNL1        0.1535
     54 C          59.0975   89.8719    6.6156 C.2     1  UNL1        0.2443
     55 O          59.9897   90.5622    7.6043 O.2     1  UNL1       -0.2730
     56 N          58.8869   88.3893    6.7029 N.am    1  UNL1       -0.2802
     57 H          58.3014   87.9362    6.0540 H       1  UNL1        0.1550
     58 C          60.5774   91.5507    4.2404 C.2     1  UNL1        0.2438
     59 O          61.5218   90.8543    5.1749 O.2     1  UNL1       -0.2731
     60 N          59.0962   91.4358    4.4478 N.am    1  UNL1       -0.2717
     61 C          58.0352   92.0724    3.5998 C.3     1  UNL1        0.0939
     62 C          56.6992   91.6942    4.1676 C.3     1  UNL1        0.0237
     63 C          56.9346   90.8238    5.3663 C.3     1  UNL1        0.0310
     64 C          58.4160   90.6641    5.5395 C.3     1  UNL1        0.1521
     65 C          61.1141   92.3618    3.0985 C.3     1  UNL1        0.1487
     66 C          59.8320   92.9596    0.9194 C.2     1  UNL1        0.2370
     67 O          60.3707   91.7230    0.2632 O.2     1  UNL1       -0.2737
     68 N          60.2037   93.2791    2.3370 N.am    1  UNL1       -0.2973
     69 H          59.8501   94.0907    2.7677 H       1  UNL1        0.1499
     70 C          58.9216   93.8768    0.1578 C.3     1  UNL1        0.1316
     71 C          59.2245   95.3441    0.0855 C.3     1  UNL1        0.0270
     72 C          56.9542   94.1742   -1.5127 C.3     1  UNL1        0.0862
     73 N          57.7084   93.3266   -0.5316 N.3     1  UNL1       -0.2902
     74 H          58.0087   92.4912   -1.0340 H       1  UNL1        0.1237
     75 C          62.5611   92.2558    2.7182 C.3     1  UNL1        0.0250
     76 C          62.5338   90.7874    3.0234 C.3     1  UNL1        0.0021
     77 C          62.5885   93.7242    2.4130 C.3     1  UNL1        0.0021
     78 C          64.0082   92.1498    2.3378 C.3     1  UNL1        0.0021
     79 O          60.5609   86.0071    5.9796 O.3     1  UNL1       -0.4701
     80 C          61.3138   84.7593    5.6245 C.3     1  UNL1        0.2525
@<TRIPOS>BOND
     1    72    73    1
     2    73    70    1
     3    70    71    1
     4    70    66    1
     5    66    67    2
     6    66    68   am
     7    65    68    1
     8    65    58    1
     9    58    59    2
    10    58    60   am
    11    60    61    1
    12    61    62    1
    13    62    63    1
    14    63    64    1
    15    64    54    1
    16    54    55    2
    17    54    56   am
    18    56    44    1
    19    44    45   ar
    20    45    46   ar
    21    46    47   ar
    22    47    43    1
    23    43    42    1
    24    42     1    1
    25     1     2    3
    26     2     3    1
    27     3     4    1
    28     4     5    1
    29     5     6   ar
    30     6     7   ar
    31     7     8   ar
    32     8     9   ar
    33     9    10   ar
    34    10    11   ar
    35    11    40    1
    36    40    41    1
    37    11    12   ar
    38    12    15    1
    39    15    16   am
    40    16    17    2
    41    19    16    1
    42    19    20    1
    43    20    21    1
    44    21    22    1
    45    22    23    1
    46    23    24   am
    47    24    25    2
    48    24    26    1
    49    26    31    1
    50    31    32   am
    51    32    33    2
    52    32    35    1
    53    35    36    1
    54    35    37    1
    55    37    38    1
    56    26    27    1
    57    27    28    1
    58    27    29    1
    59    27    30    1
    60    12    13   ar
    61    13    14   ar
    62    47    48   ar
    63    48    49   ar
    64    49    50   ar
    65    50    51   ar
    66    51    52   ar
    67    52    53   ar
    68    53    79    1
    69    79    80    1
    70    65    75    1
    71    75    76    1
    72    75    77    1
    73    75    78    1
    74    64    60    1
    75    53    44   ar
    76    51    46   ar
    77    14     5   ar
    78    14     9   ar
    79    23    19    1
    80    73    74    1
    81    68    69    1
    82    56    57    1
    83    15    18    1
    84    31    34    1
    85    37    39    1
@<TRIPOS>MOLECULE
*****
 80 85 0 0 0
SMALL
GASTEIGER

@<TRIPOS>ATOM
      1 C          62.2774   85.6271   10.2898 C.1     1  UNL1       -0.0403
      2 C          62.4306   87.0623    9.8810 C.1     1  UNL1       -0.0403
      3 C          62.5838   88.4973    9.4722 C.3     1  UNL1        0.2829
      4 O          61.8908   89.0049    8.2425 O.3     1  UNL1       -0.4454
      5 C          60.4938   88.5570    7.9300 C.ar    1  UNL1        0.2286
      6 N          59.9671   87.2799    8.5146 N.ar    1  UNL1       -0.1893
      7 C          58.5701   86.8321    8.2021 C.ar    1  UNL1        0.2015
      8 N          57.6997   87.6613    7.3050 N.ar    1  UNL1       -0.2237
      9 C          58.2263   88.9383    6.7204 C.ar    1  UNL1        0.0906
     10 C          57.3559   89.7675    5.8233 C.ar    1  UNL1        0.0575
     11 C          57.8825   91.0446    5.2386 C.ar    1  UNL1        0.1535
     12 C          59.2796   91.4924    5.5511 C.ar    1  UNL1        0.0850
     13 C          60.1500   90.6632    6.4482 C.ar    1  UNL1        0.0239
     14 C          59.6234   89.3862    7.0329 C.ar    1  UNL1        0.0723
     15 N          59.8062   92.7695    4.9665 N.am    1  UNL1       -0.2802
     16 C          59.7177   93.0103    3.4886 C.2     1  UNL1        0.2443
     17 O          59.1027   91.9741    2.5953 O.2     1  UNL1       -0.2730
     18 H          60.2099   93.4496    5.5528 H       1  UNL1        0.1550
     19 C          60.2444   94.2873    2.9039 C.3     1  UNL1        0.1521
     20 C          59.8659   95.6745    3.3311 C.3     1  UNL1        0.0310
     21 C          60.6295   96.6459    2.4807 C.3     1  UNL1        0.0237
     22 C          61.4800   95.8591    1.5279 C.3     1  UNL1        0.0939
     23 N          61.2419   94.4014    1.7895 N.am    1  UNL1       -0.2717
     24 C          61.8880   93.2585    1.0641 C.2     1  UNL1        0.2438
     25 O          61.5497   91.8457    1.4378 O.2     1  UNL1       -0.2731
     26 C          62.8724   93.5283   -0.0351 C.3     1  UNL1        0.1487
     27 C          64.2778   93.9322    0.2993 C.3     1  UNL1        0.0250
     28 C          64.2965   92.9375    1.4218 C.3     1  UNL1        0.0021
     29 C          64.2590   94.9269   -0.8232 C.3     1  UNL1        0.0021
     30 C          65.6832   94.3360    0.6336 C.3     1  UNL1        0.0021
     31 N          62.4513   93.3943   -1.4685 N.am    1  UNL1       -0.2973
     32 C          61.1435   93.9713   -1.9231 C.2     1  UNL1        0.2370
     33 O          60.2568   94.6824   -0.9443 O.2     1  UNL1       -0.2737
     34 H          63.0333   92.9276   -2.1110 H       1  UNL1        0.1499
     35 C          60.7224   93.8373   -3.3566 C.3     1  UNL1        0.1316
     36 C          61.7366   93.9788   -4.4527 C.3     1  UNL1        0.0270
     37 N          59.2871   93.5618   -3.6939 N.3     1  UNL1       -0.2902
     38 C          58.4867   92.6148   -2.8497 C.3     1  UNL1        0.0862
     39 H          59.2737   93.1921   -4.6444 H       1  UNL1        0.1237
     40 O          57.0121   91.8738    4.3415 O.3     1  UNL1       -0.4701
     41 C          55.5198   91.8172    4.4830 C.3     1  UNL1        0.2525
     42 C          62.1243   84.1921   10.6987 C.3     1  UNL1        0.2829
     43 O          63.1568   83.5477   11.5754 O.3     1  UNL1       -0.4454
     44 C          63.9227   87.4648   13.6538 C.ar    1  UNL1        0.0850
     45 C          63.6674   86.1591   12.9610 C.ar    1  UNL1        0.0239
     46 C          63.2926   84.9465   13.7606 C.ar    1  UNL1        0.0723
     47 C          63.0372   83.6408   13.0678 C.ar    1  UNL1        0.2286
     48 N          62.6624   82.4283   13.8673 N.ar    1  UNL1       -0.1893
     49 C          62.5428   82.5215   15.3596 C.ar    1  UNL1        0.2015
     50 N          62.7982   83.8272   16.0524 N.ar    1  UNL1       -0.2237
     51 C          63.1730   85.0397   15.2529 C.ar    1  UNL1        0.0906
     52 C          63.4283   86.3454   15.9457 C.ar    1  UNL1        0.0575
     53 C          63.8032   87.5579   15.1462 C.ar    1  UNL1        0.1535
     54 C          63.2685   89.7275   12.5574 C.2     1  UNL1        0.2443
     55 O          61.8646   89.5651   13.0600 O.2     1  UNL1       -0.2730
     56 N          64.2976   88.6773   12.8544 N.am    1  UNL1       -0.2802
     57 H          65.2191   88.7839   12.5245 H       1  UNL1        0.1550
     58 C          65.5916   91.8874   13.3239 C.2     1  UNL1        0.2438
     59 O          65.4427   90.7734   14.3173 O.2     1  UNL1       -0.2731
     60 N          64.7113   91.9328   12.1103 N.am    1  UNL1       -0.2717
     61 C          64.7442   92.9791   11.0358 C.3     1  UNL1        0.0939
     62 C          63.6967   92.6329   10.0195 C.3     1  UNL1        0.0237
     63 C          63.0164   91.3727   10.4658 C.3     1  UNL1        0.0310
     64 C          63.6435   90.9401   11.7579 C.3     1  UNL1        0.1521
     65 C          66.6209   92.9561   13.5442 C.3     1  UNL1        0.1487
     66 C          66.9685   94.4676   11.4600 C.2     1  UNL1        0.2370
     67 O          67.6017   93.3188   10.7324 O.2     1  UNL1       -0.2737
     68 N          66.4780   94.2863   12.8658 N.am    1  UNL1       -0.2973
     69 H          66.0624   95.0403   13.3433 H       1  UNL1        0.1499
     70 C          66.8256   95.7978   10.7815 C.3     1  UNL1        0.1316
     71 C          65.8137   96.7878   11.2772 C.3     1  UNL1        0.0270
     72 C          67.0778   96.3717    8.2601 C.3     1  UNL1        0.0862
     73 N          67.6948   96.1378    9.6072 N.3     1  UNL1       -0.2902
     74 H          68.1998   96.9897    9.8516 H       1  UNL1        0.1237
     75 C          67.7931   92.6946   14.4429 C.3     1  UNL1        0.0250
     76 C          68.4285   91.8595   13.3711 C.3     1  UNL1        0.0021
     77 C          67.1576   93.5296   15.5147 C.3     1  UNL1        0.0021
     78 C          68.9652   92.4330   15.3416 C.3     1  UNL1        0.0021
     79 O          64.0585   88.8636   15.8390 O.3     1  UNL1       -0.4701
     80 C          63.0348   89.4261   16.7800 C.3     1  UNL1        0.2525
@<TRIPOS>BOND
     1    72    73    1
     2    73    70    1
     3    70    71    1
     4    70    66    1
     5    66    67    2
     6    66    68   am
     7    65    68    1
     8    65    58    1
     9    58    59    2
    10    58    60   am
    11    60    61    1
    12    61    62    1
    13    62    63    1
    14    63    64    1
    15    64    54    1
    16    54    55    2
    17    54    56   am
    18    56    44    1
    19    44    45   ar
    20    45    46   ar
    21    46    47   ar
    22    47    43    1
    23    43    42    1
    24    42     1    1
    25     1     2    3
    26     2     3    1
    27     3     4    1
    28     4     5    1
    29     5     6   ar
    30     6     7   ar
    31     7     8   ar
    32     8     9   ar
    33     9    10   ar
    34    10    11   ar
    35    11    40    1
    36    40    41    1
    37    11    12   ar
    38    12    15    1
    39    15    16   am
    40    16    17    2
    41    19    16    1
    42    19    20    1
    43    20    21    1
    44    21    22    1
    45    22    23    1
    46    23    24   am
    47    24    25    2
    48    24    26    1
    49    26    31    1
    50    31    32   am
    51    32    33    2
    52    32    35    1
    53    35    36    1
    54    35    37    1
    55    37    38    1
    56    26    27    1
    57    27    28    1
    58    27    29    1
    59    27    30    1
    60    12    13   ar
    61    13    14   ar
    62    47    48   ar
    63    48    49   ar
    64    49    50   ar
    65    50    51   ar
    66    51    52   ar
    67    52    53   ar
    68    53    79    1
    69    79    80    1
    70    65    75    1
    71    75    76    1
    72    75    77    1
    73    75    78    1
    74    64    60    1
    75    53    44   ar
    76    51    46   ar
    77    14     5   ar
    78    14     9   ar
    79    23    19    1
    80    73    74    1
    81    68    69    1
    82    56    57    1
    83    15    18    1
    84    31    34    1
    85    37    39    1
