@<TRIPOS>MOLECULE
*****
 21 21 0 0 0
SMALL
GASTEIGER

@<TRIPOS>ATOM
      1 C          62.0438   86.0571    8.7378 C.3     1  UNL1        0.0346
      2 C          62.7018   85.2104    9.7867 C.ar    1  UNL1       -0.0185
      3 C          63.5705   84.0563    9.3826 C.ar    1  UNL1       -0.0009
      4 C          64.2285   83.2096   10.4315 C.ar    1  UNL1        0.0395
      5 C          64.0178   83.5170   11.8844 C.ar    1  UNL1        0.1677
      6 O          64.6758   82.6703   12.9333 O.3     1  UNL1       -0.5029
      7 C          63.1491   84.6712   12.2885 C.ar    1  UNL1        0.1718
      8 C          62.4911   85.5179   11.2396 C.ar    1  UNL1        0.0358
      9 H          65.2184   81.9493   12.6809 H       1  UNL1        0.2923
     10 O          62.9385   84.9787   13.7415 O.3     1  UNL1       -0.4684
     11 C          64.0381   85.6120   14.5412 C.3     1  UNL1        0.2526
     12 C          60.5544   86.0146    8.5653 C.3     1  UNL1        0.0738
     13 C          59.7699   87.2916    8.5029 C.2     1  UNL1        0.1731
     14 O          58.5826   87.3987    7.5926 O.2     1  UNL1       -0.2913
     15 C          60.0471   88.3842   10.8437 C.2     1  UNL1       -0.0232
     16 C          60.1727   88.4615    9.3510 C.2     1  UNL1        0.0329
     17 C          60.4499   89.5541   11.6918 C.3     1  UNL1        0.0261
     18 C          61.5900   90.4313   11.2668 C.3     1  UNL1        0.0047
     19 C          63.0040   89.9683   11.4574 C.3     1  UNL1        0.0003
     20 C          64.0010   89.2903   13.7588 C.3     1  UNL1        0.0000
     21 C          63.3170   88.9144   12.4778 C.3     1  UNL1        0.0000
@<TRIPOS>BOND
     1    20    21    1
     2    21    19    1
     3    19    18    1
     4    18    17    1
     5    17    15    1
     6    15    16    2
     7    16    13    1
     8    13    14    2
     9    13    12    1
    10    12     1    1
    11     1     2    1
    12     2     3   ar
    13     3     4   ar
    14     4     5   ar
    15     5     6    1
    16     5     7   ar
    17     7    10    1
    18    10    11    1
    19     7     8   ar
    20     8     2   ar
    21     6     9    1
@<TRIPOS>MOLECULE
*****
 21 21 0 0 0
SMALL
GASTEIGER

@<TRIPOS>ATOM
      1 C          61.4070   86.4237   10.2228 C.3     1  UNL1        0.0346
      2 C          62.3480   85.3514   10.6859 C.ar    1  UNL1       -0.0185
      3 C          63.1248   84.5508    9.6831 C.ar    1  UNL1       -0.0009
      4 C          64.0658   83.4785   10.1463 C.ar    1  UNL1        0.0395
      5 C          64.2301   83.2067   11.6123 C.ar    1  UNL1        0.1677
      6 O          65.1711   82.1343   12.0754 O.3     1  UNL1       -0.5029
      7 C          63.4533   84.0072   12.6151 C.ar    1  UNL1        0.1718
      8 C          62.5122   85.0796   12.1519 C.ar    1  UNL1        0.0358
      9 H          65.6563   81.6342   11.4490 H       1  UNL1        0.2923
     10 O          63.6175   83.7354   14.0811 O.3     1  UNL1       -0.4684
     11 C          62.4942   84.0332   15.0295 C.3     1  UNL1        0.2526
     12 C          61.9471   87.7289    9.7183 C.3     1  UNL1        0.0738
     13 C          62.0321   88.9110   10.6377 C.2     1  UNL1        0.1731
     14 O          61.4342   88.8373   12.0114 O.2     1  UNL1       -0.2913
     15 C          63.6788   90.8682   11.0943 C.2     1  UNL1       -0.0232
     16 C          62.7151   90.1670   10.1834 C.2     1  UNL1        0.0329
     17 C          64.3618   92.1240   10.6401 C.3     1  UNL1        0.0261
     18 C          65.4893   92.6980   11.4457 C.3     1  UNL1        0.0047
     19 C          66.7415   93.1596   10.7608 C.3     1  UNL1        0.0003
     20 C          68.5155   92.4830    8.9873 C.3     1  UNL1        0.0000
     21 C          67.7082   92.1546   10.2081 C.3     1  UNL1        0.0000
@<TRIPOS>BOND
     1    20    21    1
     2    21    19    1
     3    19    18    1
     4    18    17    1
     5    17    15    1
     6    15    16    2
     7    16    13    1
     8    13    14    2
     9    13    12    1
    10    12     1    1
    11     1     2    1
    12     2     3   ar
    13     3     4   ar
    14     4     5   ar
    15     5     6    1
    16     5     7   ar
    17     7    10    1
    18    10    11    1
    19     7     8   ar
    20     8     2   ar
    21     6     9    1
@<TRIPOS>MOLECULE
*****
 21 21 0 0 0
SMALL
GASTEIGER

@<TRIPOS>ATOM
      1 C          61.4707   86.5036   10.2023 C.3     1  UNL1        0.0346
      2 C          62.3948   85.4154   10.6626 C.ar    1  UNL1       -0.0185
      3 C          63.0680   84.5281    9.6578 C.ar    1  UNL1       -0.0009
      4 C          63.9921   83.4400   10.1182 C.ar    1  UNL1        0.0395
      5 C          64.2430   83.2391   11.5833 C.ar    1  UNL1        0.1677
      6 O          65.1671   82.1509   12.0436 O.3     1  UNL1       -0.5029
      7 C          63.5699   84.1263   12.5880 C.ar    1  UNL1        0.1718
      8 C          62.6458   85.2145   12.1277 C.ar    1  UNL1        0.0358
      9 H          65.5876   81.5966   11.4159 H       1  UNL1        0.2923
     10 O          63.8208   83.9254   14.0533 O.3     1  UNL1       -0.4684
     11 C          62.9590   82.9825   14.8394 C.3     1  UNL1        0.2526
     12 C          62.0319   87.7838    9.6582 C.3     1  UNL1        0.0738
     13 C          61.4173   89.0963   10.0450 C.2     1  UNL1        0.1731
     14 O          60.1467   89.5514    9.3903 O.2     1  UNL1       -0.2913
     15 C          62.9336   89.3251   12.1423 C.2     1  UNL1       -0.0232
     16 C          62.0732   89.9537   11.0865 C.2     1  UNL1        0.0329
     17 C          63.5895   90.1825   13.1837 C.3     1  UNL1        0.0261
     18 C          64.4847   89.5591   14.2133 C.3     1  UNL1        0.0047
     19 C          64.3675   88.0958   14.5219 C.3     1  UNL1        0.0003
     20 C          63.1647   88.6274   16.7625 C.3     1  UNL1        0.0000
     21 C          63.5692   87.6408   15.7075 C.3     1  UNL1        0.0000
@<TRIPOS>BOND
     1    20    21    1
     2    21    19    1
     3    19    18    1
     4    18    17    1
     5    17    15    1
     6    15    16    2
     7    16    13    1
     8    13    14    2
     9    13    12    1
    10    12     1    1
    11     1     2    1
    12     2     3   ar
    13     3     4   ar
    14     4     5   ar
    15     5     6    1
    16     5     7   ar
    17     7    10    1
    18    10    11    1
    19     7     8   ar
    20     8     2   ar
    21     6     9    1
@<TRIPOS>MOLECULE
*****
 21 21 0 0 0
SMALL
GASTEIGER

@<TRIPOS>ATOM
      1 C          63.5140   83.9328    9.4260 C.3     1  UNL1        0.0346
      2 C          63.2484   83.4654   10.8264 C.ar    1  UNL1       -0.0185
      3 C          63.1665   81.9977   11.1244 C.ar    1  UNL1       -0.0009
      4 C          62.9009   81.5303   12.5248 C.ar    1  UNL1        0.0395
      5 C          62.7171   82.5307   13.6271 C.ar    1  UNL1        0.1677
      6 O          62.4515   82.0634   15.0275 O.3     1  UNL1       -0.5029
      7 C          62.7989   83.9985   13.3291 C.ar    1  UNL1        0.1718
      8 C          63.0645   84.4659   11.9288 C.ar    1  UNL1        0.0358
      9 H          62.4004   81.1465   15.2136 H       1  UNL1        0.2923
     10 O          62.6151   84.9991   14.4315 O.3     1  UNL1       -0.4684
     11 C          63.7715   85.3625   15.3151 C.3     1  UNL1        0.2526
     12 C          63.1735   85.3381    9.0271 C.3     1  UNL1        0.0738
     13 C          61.9921   85.6008    8.1410 C.2     1  UNL1        0.1731
     14 O          61.8251   84.8296    6.8653 O.2     1  UNL1       -0.2913
     15 C          61.3648   87.7576    9.4468 C.2     1  UNL1       -0.0232
     16 C          60.9776   86.6348    8.5306 C.2     1  UNL1        0.0329
     17 C          60.3505   88.7915    9.8364 C.3     1  UNL1        0.0261
     18 C          60.7994   90.1119   10.3887 C.3     1  UNL1        0.0047
     19 C          62.2402   90.5167   10.2868 C.3     1  UNL1        0.0003
     20 C          63.2165   89.3182   12.3750 C.3     1  UNL1        0.0000
     21 C          63.1008   90.5418   11.5151 C.3     1  UNL1        0.0000
@<TRIPOS>BOND
     1    20    21    1
     2    21    19    1
     3    19    18    1
     4    18    17    1
     5    17    15    1
     6    15    16    2
     7    16    13    1
     8    13    14    2
     9    13    12    1
    10    12     1    1
    11     1     2    1
    12     2     3   ar
    13     3     4   ar
    14     4     5   ar
    15     5     6    1
    16     5     7   ar
    17     7    10    1
    18    10    11    1
    19     7     8   ar
    20     8     2   ar
    21     6     9    1
@<TRIPOS>MOLECULE
*****
 21 21 0 0 0
SMALL
GASTEIGER

@<TRIPOS>ATOM
      1 C          62.9770   90.7859   11.3683 C.3     1  UNL1        0.0346
      2 C          64.1769   91.3580   12.0632 C.ar    1  UNL1       -0.0185
      3 C          64.5388   90.8907   13.4418 C.ar    1  UNL1       -0.0009
      4 C          65.7387   91.4628   14.1368 C.ar    1  UNL1        0.0395
      5 C          66.5766   92.5022   13.4532 C.ar    1  UNL1        0.1677
      6 O          67.7765   93.0743   14.1481 O.3     1  UNL1       -0.5029
      7 C          66.2147   92.9695   12.0745 C.ar    1  UNL1        0.1718
      8 C          65.0148   92.3974   11.3796 C.ar    1  UNL1        0.0358
      9 H          68.0026   92.7824   15.0093 H       1  UNL1        0.2923
     10 O          67.0527   94.0089   11.3908 O.3     1  UNL1       -0.4684
     11 C          66.4358   95.3077   10.9636 C.3     1  UNL1        0.2526
     12 C          62.7121   89.3105   11.4214 C.3     1  UNL1        0.0738
     13 C          61.9359   88.6478   10.3222 C.2     1  UNL1        0.1731
     14 O          61.0674   89.4695    9.4165 O.2     1  UNL1       -0.2913
     15 C          62.3357   86.2723   11.2956 C.2     1  UNL1       -0.0232
     16 C          62.0284   87.1631   10.1285 C.2     1  UNL1        0.0329
     17 C          62.4282   84.7877   11.1020 C.3     1  UNL1        0.0261
     18 C          63.3729   84.2215   10.0837 C.3     1  UNL1        0.0047
     19 C          64.1581   82.9823   10.3965 C.3     1  UNL1        0.0003
     20 C          63.0058   81.3160   12.0230 C.3     1  UNL1        0.0000
     21 C          63.4462   81.6841   10.6372 C.3     1  UNL1        0.0000
@<TRIPOS>BOND
     1    20    21    1
     2    21    19    1
     3    19    18    1
     4    18    17    1
     5    17    15    1
     6    15    16    2
     7    16    13    1
     8    13    14    2
     9    13    12    1
    10    12     1    1
    11     1     2    1
    12     2     3   ar
    13     3     4   ar
    14     4     5   ar
    15     5     6    1
    16     5     7   ar
    17     7    10    1
    18    10    11    1
    19     7     8   ar
    20     8     2   ar
    21     6     9    1
@<TRIPOS>MOLECULE
*****
 21 21 0 0 0
SMALL
GASTEIGER

@<TRIPOS>ATOM
      1 C          61.4981   86.5456    9.9892 C.3     1  UNL1        0.0346
      2 C          62.3955   85.4667   10.5190 C.ar    1  UNL1       -0.0185
      3 C          63.1088   84.5508    9.5691 C.ar    1  UNL1       -0.0009
      4 C          64.0063   83.4720   10.0989 C.ar    1  UNL1        0.0395
      5 C          64.1904   83.3090   11.5786 C.ar    1  UNL1        0.1677
      6 O          65.0878   82.2301   12.1084 O.3     1  UNL1       -0.5029
      7 C          63.4771   84.2249   12.5285 C.ar    1  UNL1        0.1718
      8 C          62.5797   85.3037   11.9987 C.ar    1  UNL1        0.0358
      9 H          65.5334   81.6580   11.5150 H       1  UNL1        0.2923
     10 O          63.6612   84.0619   14.0083 O.3     1  UNL1       -0.4684
     11 C          62.8353   83.0614   14.7611 C.3     1  UNL1        0.2526
     12 C          62.0824   87.8477    9.5276 C.3     1  UNL1        0.0738
     13 C          61.4843   89.1436    9.9889 C.2     1  UNL1        0.1731
     14 O          60.0528   89.4628    9.6748 O.2     1  UNL1       -0.2913
     15 C          63.0147   89.6819   12.0183 C.2     1  UNL1       -0.0232
     16 C          62.3178   90.1203   10.7644 C.2     1  UNL1        0.0329
     17 C          63.8482   90.6585   12.7938 C.3     1  UNL1        0.0261
     18 C          64.6061   90.2018   14.0050 C.3     1  UNL1        0.0047
     19 C          65.5163   91.1536   14.7231 C.3     1  UNL1        0.0003
     20 C          66.4433   93.2494   13.4990 C.3     1  UNL1        0.0000
     21 C          66.6230   91.8394   13.9781 C.3     1  UNL1        0.0000
@<TRIPOS>BOND
     1    20    21    1
     2    21    19    1
     3    19    18    1
     4    18    17    1
     5    17    15    1
     6    15    16    2
     7    16    13    1
     8    13    14    2
     9    13    12    1
    10    12     1    1
    11     1     2    1
    12     2     3   ar
    13     3     4   ar
    14     4     5   ar
    15     5     6    1
    16     5     7   ar
    17     7    10    1
    18    10    11    1
    19     7     8   ar
    20     8     2   ar
    21     6     9    1
@<TRIPOS>MOLECULE
*****
 21 21 0 0 0
SMALL
GASTEIGER

@<TRIPOS>ATOM
      1 C          63.4881   90.3654   12.3853 C.3     1  UNL1        0.0346
      2 C          64.5746   91.2122   12.9789 C.ar    1  UNL1       -0.0185
      3 C          65.1458   90.8662   14.3221 C.ar    1  UNL1       -0.0009
      4 C          66.2324   91.7130   14.9157 C.ar    1  UNL1        0.0395
      5 C          66.7477   92.9057   14.1662 C.ar    1  UNL1        0.1677
      6 O          67.8343   93.7525   14.7598 O.3     1  UNL1       -0.5029
      7 C          66.1765   93.2516   12.8230 C.ar    1  UNL1        0.1718
      8 C          65.0900   92.4049   12.2294 C.ar    1  UNL1        0.0358
      9 H          68.1911   93.5364   15.5988 H       1  UNL1        0.2923
     10 O          66.6919   94.4444   12.0735 O.3     1  UNL1       -0.4684
     11 C          66.3275   94.6389   10.6315 C.3     1  UNL1        0.2526
     12 C          63.4241   88.8998   12.6979 C.3     1  UNL1        0.0738
     13 C          62.6877   87.9687   11.7809 C.2     1  UNL1        0.1731
     14 O          62.6088   86.5058   12.1027 O.2     1  UNL1       -0.2913
     15 C          60.6918   87.9731   10.1177 C.2     1  UNL1       -0.0232
     16 C          62.0303   88.5007   10.5420 C.2     1  UNL1        0.0329
     17 C          60.0343   88.5049    8.8789 C.3     1  UNL1        0.0261
     18 C          59.7732   87.5923    7.7175 C.3     1  UNL1        0.0047
     19 C          60.0200   86.1187    7.8513 C.3     1  UNL1        0.0003
     20 C          62.4983   85.4370    8.2295 C.3     1  UNL1        0.0000
     21 C          61.2963   85.5222    7.3363 C.3     1  UNL1        0.0000
@<TRIPOS>BOND
     1    20    21    1
     2    21    19    1
     3    19    18    1
     4    18    17    1
     5    17    15    1
     6    15    16    2
     7    16    13    1
     8    13    14    2
     9    13    12    1
    10    12     1    1
    11     1     2    1
    12     2     3   ar
    13     3     4   ar
    14     4     5   ar
    15     5     6    1
    16     5     7   ar
    17     7    10    1
    18    10    11    1
    19     7     8   ar
    20     8     2   ar
    21     6     9    1
@<TRIPOS>MOLECULE
*****
 21 21 0 0 0
SMALL
GASTEIGER

@<TRIPOS>ATOM
      1 C          62.3762   89.7941   11.8364 C.3     1  UNL1        0.0346
      2 C          63.5007   90.7856   11.8877 C.ar    1  UNL1       -0.0185
      3 C          63.9102   91.5201   10.6456 C.ar    1  UNL1       -0.0009
      4 C          65.0346   92.5116   10.6970 C.ar    1  UNL1        0.0395
      5 C          65.7495   92.7686   11.9904 C.ar    1  UNL1        0.1677
      6 O          66.8739   93.7601   12.0417 O.3     1  UNL1       -0.5029
      7 C          65.3399   92.0341   13.2324 C.ar    1  UNL1        0.1718
      8 C          64.2155   91.0426   13.1811 C.ar    1  UNL1        0.0358
      9 H          67.1297   94.2189   11.2658 H       1  UNL1        0.2923
     10 O          66.0548   92.2911   14.5259 O.3     1  UNL1       -0.4684
     11 C          67.3361   91.5730   14.8302 C.3     1  UNL1        0.2526
     12 C          62.3364   88.7609   10.7497 C.3     1  UNL1        0.0738
     13 C          61.2737   87.7023   10.7599 C.2     1  UNL1        0.1731
     14 O          59.8266   88.0929   10.8173 O.2     1  UNL1       -0.2913
     15 C          62.5327   85.6739   11.7849 C.2     1  UNL1       -0.0232
     16 C          61.6582   86.2532   10.7126 C.2     1  UNL1        0.0329
     17 C          62.9171   84.2248   11.7377 C.3     1  UNL1        0.0261
     18 C          63.6210   83.5972   12.9042 C.3     1  UNL1        0.0047
     19 C          63.5847   84.2622   14.2483 C.3     1  UNL1        0.0003
     20 C          64.4524   86.6476   14.8021 C.3     1  UNL1        0.0000
     21 C          64.7003   85.1748   14.6639 C.3     1  UNL1        0.0000
@<TRIPOS>BOND
     1    20    21    1
     2    21    19    1
     3    19    18    1
     4    18    17    1
     5    17    15    1
     6    15    16    2
     7    16    13    1
     8    13    14    2
     9    13    12    1
    10    12     1    1
    11     1     2    1
    12     2     3   ar
    13     3     4   ar
    14     4     5   ar
    15     5     6    1
    16     5     7   ar
    17     7    10    1
    18    10    11    1
    19     7     8   ar
    20     8     2   ar
    21     6     9    1
@<TRIPOS>MOLECULE
*****
 21 21 0 0 0
SMALL
GASTEIGER

@<TRIPOS>ATOM
      1 C          64.6550   89.9141   13.8714 C.3     1  UNL1        0.0346
      2 C          64.1404   88.9314   14.8811 C.ar    1  UNL1       -0.0185
      3 C          63.3781   89.4161   16.0786 C.ar    1  UNL1       -0.0009
      4 C          62.8634   88.4335   17.0883 C.ar    1  UNL1        0.0395
      5 C          63.1111   86.9660   16.9006 C.ar    1  UNL1        0.1677
      6 O          62.5965   85.9834   17.9103 O.3     1  UNL1       -0.5029
      7 C          63.8734   86.4813   15.7031 C.ar    1  UNL1        0.1718
      8 C          64.3880   87.4640   14.6934 C.ar    1  UNL1        0.0358
      9 H          62.1203   86.2862   18.6583 H       1  UNL1        0.2923
     10 O          64.1211   85.0138   15.5154 O.3     1  UNL1       -0.4684
     11 C          64.8051   84.5214   14.2746 C.3     1  UNL1        0.2526
     12 C          63.7127   90.8811   13.2181 C.3     1  UNL1        0.0738
     13 C          63.5856   90.9111   11.7238 C.2     1  UNL1        0.1731
     14 O          64.4314   91.8519   10.9180 O.2     1  UNL1       -0.2913
     15 C          62.4792   88.5733   11.4780 C.2     1  UNL1       -0.0232
     16 C          62.6127   90.0003   11.0354 C.2     1  UNL1        0.0329
     17 C          61.5063   87.6625   10.7896 C.3     1  UNL1        0.0261
     18 C          61.8888   86.9901    9.5045 C.3     1  UNL1        0.0047
     19 C          60.9225   86.0651    8.8255 C.3     1  UNL1        0.0003
     20 C          62.3820   84.8562    7.0483 C.3     1  UNL1        0.0000
     21 C          61.1577   85.6463    7.4045 C.3     1  UNL1        0.0000
@<TRIPOS>BOND
     1    20    21    1
     2    21    19    1
     3    19    18    1
     4    18    17    1
     5    17    15    1
     6    15    16    2
     7    16    13    1
     8    13    14    2
     9    13    12    1
    10    12     1    1
    11     1     2    1
    12     2     3   ar
    13     3     4   ar
    14     4     5   ar
    15     5     6    1
    16     5     7   ar
    17     7    10    1
    18    10    11    1
    19     7     8   ar
    20     8     2   ar
    21     6     9    1
