@<TRIPOS>MOLECULE
*****
 35 37 0 0 0
SMALL
GASTEIGER

@<TRIPOS>ATOM
      1 C          65.8802   92.4734   12.8463 C.ar    1  UNL1        0.1726
      2 C          64.7723   92.1658   11.8830 C.ar    1  UNL1        0.0411
      3 C          63.9168   90.9507   12.0870 C.ar    1  UNL1        0.0180
      4 C          64.1692   90.0431   13.2543 C.ar    1  UNL1        0.0540
      5 C          65.2772   90.3507   14.2176 C.ar    1  UNL1        0.0475
      6 C          66.1326   91.5658   14.0136 C.ar    1  UNL1        0.1756
      7 F          67.2406   91.8733   14.9769 F       1  UNL1       -0.2009
      8 N          63.3138   88.8280   13.4583 N.am    1  UNL1       -0.2679
      9 C          63.8709   87.6288   14.1664 C.2     1  UNL1        0.3102
     10 O          65.2835   87.6447   14.6706 O.2     1  UNL1       -0.2521
     11 N          63.0153   86.4137   14.3704 N.am    1  UNL1       -0.2391
     12 C          63.5725   85.2145   15.0786 C.2     1  UNL1        0.2337
     13 O          64.9852   85.2304   15.5827 O.2     1  UNL1       -0.2743
     14 H          62.3866   88.8176   13.1274 H       1  UNL1        0.1564
     15 H          62.0882   86.4033   14.0395 H       1  UNL1        0.1591
     16 C          62.7170   83.9994   15.2826 C.3     1  UNL1        0.1118
     17 C          62.7238   82.8978   14.2645 C.ar    1  UNL1       -0.0129
     18 C          63.6038   83.0006   13.0542 C.ar    1  UNL1       -0.0015
     19 C          63.6107   81.8990   12.0361 C.ar    1  UNL1        0.0293
     20 C          62.7375   80.6946   12.2284 C.ar    1  UNL1        0.1401
     21 F          62.7444   79.5930   11.2103 F       1  UNL1       -0.2042
     22 C          61.8575   80.5918   13.4387 C.ar    1  UNL1        0.0293
     23 C          61.8507   81.6934   14.4568 C.ar    1  UNL1       -0.0015
     24 O          66.7357   93.6885   12.6423 O.3     1  UNL1       -0.4505
     25 C          66.8880   94.3091   10.1240 C.ar    1  UNL1        0.1081
     26 C          66.4381   94.6350   11.5173 C.ar    1  UNL1        0.1572
     27 C          65.6905   95.9075   11.7857 C.ar    1  UNL1        0.0589
     28 C          65.3929   96.8540   10.6608 C.ar    1  UNL1        0.1035
     29 N          65.8428   96.5281    9.2675 N.ar    1  UNL1       -0.2288
     30 C          66.5904   95.2556    8.9991 C.ar    1  UNL1        0.1361
     31 N          67.0403   94.9298    7.6057 N.pl3   1  UNL1       -0.3421
     32 H          66.8450   95.5510    6.8674 H       1  UNL1        0.1437
     33 H          67.5310   94.0946    7.4295 H       1  UNL1        0.1437
     34 C          68.3831   91.7642    9.5872 C.1     1  UNL1       -0.0090
     35 C          67.6356   93.0367    9.8556 C.1     1  UNL1       -0.0453
@<TRIPOS>BOND
     1    34    35    3
     2    35    25    1
     3    25    26   ar
     4    26    24    1
     5    24     1    1
     6     1     2   ar
     7     2     3   ar
     8     3     4   ar
     9     4     8    1
    10     8     9   am
    11     9    10    2
    12     9    11   am
    13    11    12   am
    14    12    13    2
    15    12    16    1
    16    16    17    1
    17    17    18   ar
    18    18    19   ar
    19    19    20   ar
    20    20    21    1
    21    20    22   ar
    22    22    23   ar
    23     4     5   ar
    24     5     6   ar
    25     6     7    1
    26    26    27   ar
    27    27    28   ar
    28    28    29   ar
    29    29    30   ar
    30    30    31    1
    31    30    25   ar
    32     6     1   ar
    33    23    17   ar
    34     8    14    1
    35    11    15    1
    36    31    32    1
    37    31    33    1
@<TRIPOS>MOLECULE
*****
 35 37 0 0 0
SMALL
GASTEIGER

@<TRIPOS>ATOM
      1 C          65.7899   93.1293   13.0116 C.ar    1  UNL1        0.1726
      2 C          66.3746   92.8138   14.3565 C.ar    1  UNL1        0.0411
      3 C          66.0522   91.5116   15.0277 C.ar    1  UNL1        0.0180
      4 C          65.1452   90.5250   14.3541 C.ar    1  UNL1        0.0540
      5 C          64.5605   90.8405   13.0092 C.ar    1  UNL1        0.0475
      6 C          64.8828   92.1426   12.3380 C.ar    1  UNL1        0.1756
      7 F          64.2981   92.4581   10.9932 F       1  UNL1       -0.2009
      8 N          64.8228   89.2229   15.0253 N.am    1  UNL1       -0.2679
      9 C          64.1609   88.1229   14.2495 C.2     1  UNL1        0.3102
     10 O          63.8213   88.3250   12.8026 O.2     1  UNL1       -0.2521
     11 N          63.8386   86.8207   14.9208 N.am    1  UNL1       -0.2391
     12 C          63.1766   85.7207   14.1451 C.2     1  UNL1        0.2337
     13 O          62.8370   85.9229   12.6980 O.2     1  UNL1       -0.2743
     14 H          65.0457   89.0903   15.9750 H       1  UNL1        0.1564
     15 H          64.0614   86.6881   15.8706 H       1  UNL1        0.1591
     16 C          62.8543   84.4186   14.8163 C.3     1  UNL1        0.1118
     17 C          62.8064   83.1526   14.0133 C.ar    1  UNL1       -0.0129
     18 C          61.9193   82.0231   14.4461 C.ar    1  UNL1       -0.0015
     19 C          61.8714   80.7570   13.6431 C.ar    1  UNL1        0.0293
     20 C          62.7106   80.6204   12.4074 C.ar    1  UNL1        0.1401
     21 F          62.6628   79.3543   11.6044 F       1  UNL1       -0.2042
     22 C          63.5977   81.7499   11.9747 C.ar    1  UNL1        0.0293
     23 C          63.6456   83.0160   12.7776 C.ar    1  UNL1       -0.0015
     24 O          66.1123   94.4314   12.3404 O.3     1  UNL1       -0.4505
     25 C          67.5314   93.4389   10.4036 C.ar    1  UNL1        0.1081
     26 C          66.5407   94.4483   10.9029 C.ar    1  UNL1        0.1572
     27 C          65.9783   95.4748    9.9648 C.ar    1  UNL1        0.0589
     28 C          66.4066   95.4918    8.5274 C.ar    1  UNL1        0.1035
     29 N          67.3974   94.4823    8.0281 N.ar    1  UNL1       -0.2288
     30 C          67.9598   93.4558    8.9662 C.ar    1  UNL1        0.1361
     31 N          68.9506   92.4463    8.4669 N.pl3   1  UNL1       -0.3421
     32 H          69.2317   92.4575    7.5234 H       1  UNL1        0.1437
     33 H          69.3197   91.7726    9.0826 H       1  UNL1        0.1437
     34 C          68.6562   91.3859   12.2799 C.1     1  UNL1       -0.0090
     35 C          68.0938   92.4124   11.3418 C.1     1  UNL1       -0.0453
@<TRIPOS>BOND
     1    34    35    3
     2    35    25    1
     3    25    26   ar
     4    26    24    1
     5    24     1    1
     6     1     2   ar
     7     2     3   ar
     8     3     4   ar
     9     4     8    1
    10     8     9   am
    11     9    10    2
    12     9    11   am
    13    11    12   am
    14    12    13    2
    15    12    16    1
    16    16    17    1
    17    17    18   ar
    18    18    19   ar
    19    19    20   ar
    20    20    21    1
    21    20    22   ar
    22    22    23   ar
    23     4     5   ar
    24     5     6   ar
    25     6     7    1
    26    26    27   ar
    27    27    28   ar
    28    28    29   ar
    29    29    30   ar
    30    30    31    1
    31    30    25   ar
    32     6     1   ar
    33    23    17   ar
    34     8    14    1
    35    11    15    1
    36    31    32    1
    37    31    33    1
@<TRIPOS>MOLECULE
*****
 35 37 0 0 0
SMALL
GASTEIGER

@<TRIPOS>ATOM
      1 C          64.4466   90.9092   13.1507 C.ar    1  UNL1        0.1726
      2 C          64.6372   89.8401   14.1855 C.ar    1  UNL1        0.0411
      3 C          64.0683   88.4702   13.9620 C.ar    1  UNL1        0.0180
      4 C          63.3090   88.1695   12.7039 C.ar    1  UNL1        0.0540
      5 C          63.1184   89.2386   11.6692 C.ar    1  UNL1        0.0475
      6 C          63.6872   90.6084   11.8926 C.ar    1  UNL1        0.1756
      7 F          63.4967   91.6775   10.8579 F       1  UNL1       -0.2009
      8 N          62.7402   86.7996   12.4805 N.am    1  UNL1       -0.2679
      9 C          63.0347   85.6973   13.4542 C.2     1  UNL1        0.3102
     10 O          63.8980   85.9647   14.6513 O.2     1  UNL1       -0.2521
     11 N          62.4659   84.3274   13.2307 N.am    1  UNL1       -0.2391
     12 C          62.7604   83.2250   14.2044 C.2     1  UNL1        0.2337
     13 O          63.6238   83.4926   15.4016 O.2     1  UNL1       -0.2743
     14 H          62.1735   86.6240   11.6948 H       1  UNL1        0.1564
     15 H          61.8992   84.1518   12.4450 H       1  UNL1        0.1591
     16 C          62.1916   81.8552   13.9810 C.3     1  UNL1        0.1118
     17 C          62.4897   81.1175   12.7094 C.ar    1  UNL1       -0.0129
     18 C          62.3647   79.6235   12.6621 C.ar    1  UNL1       -0.0015
     19 C          62.6628   78.8858   11.3905 C.ar    1  UNL1        0.0293
     20 C          63.0859   79.6421   10.1662 C.ar    1  UNL1        0.1401
     21 F          63.3840   78.9045    8.8946 F       1  UNL1       -0.2042
     22 C          63.2109   81.1361   10.2136 C.ar    1  UNL1        0.0293
     23 C          62.9128   81.8738   11.4852 C.ar    1  UNL1       -0.0015
     24 O          65.0154   92.2790   13.3741 O.3     1  UNL1       -0.4505
     25 C          67.6026   92.3577   13.5985 C.ar    1  UNL1        0.1081
     26 C          66.2413   92.4532   14.2210 C.ar    1  UNL1        0.1572
     27 C          66.1057   92.7229   15.6903 C.ar    1  UNL1        0.0589
     28 C          67.3314   92.8970   16.5371 C.ar    1  UNL1        0.1035
     29 N          68.6928   92.8015   15.9147 N.ar    1  UNL1       -0.2288
     30 C          68.8284   92.5319   14.4454 C.ar    1  UNL1        0.1361
     31 N          70.1898   92.4364   13.8229 N.pl3   1  UNL1       -0.3421
     32 H          70.9943   92.5507   14.3787 H       1  UNL1        0.1437
     33 H          70.2789   92.2594   12.8585 H       1  UNL1        0.1437
     34 C          67.8739   91.8184   10.6599 C.1     1  UNL1       -0.0090
     35 C          67.7383   92.0881   12.1292 C.1     1  UNL1       -0.0453
@<TRIPOS>BOND
     1    34    35    3
     2    35    25    1
     3    25    26   ar
     4    26    24    1
     5    24     1    1
     6     1     2   ar
     7     2     3   ar
     8     3     4   ar
     9     4     8    1
    10     8     9   am
    11     9    10    2
    12     9    11   am
    13    11    12   am
    14    12    13    2
    15    12    16    1
    16    16    17    1
    17    17    18   ar
    18    18    19   ar
    19    19    20   ar
    20    20    21    1
    21    20    22   ar
    22    22    23   ar
    23     4     5   ar
    24     5     6   ar
    25     6     7    1
    26    26    27   ar
    27    27    28   ar
    28    28    29   ar
    29    29    30   ar
    30    30    31    1
    31    30    25   ar
    32     6     1   ar
    33    23    17   ar
    34     8    14    1
    35    11    15    1
    36    31    32    1
    37    31    33    1
@<TRIPOS>MOLECULE
*****
 35 37 0 0 0
SMALL
GASTEIGER

@<TRIPOS>ATOM
      1 C          61.9375   86.8283   11.8990 C.ar    1  UNL1        0.1726
      2 C          63.0308   87.4587   12.7097 C.ar    1  UNL1        0.0411
      3 C          63.5639   88.8083   12.3291 C.ar    1  UNL1        0.0180
      4 C          63.0036   89.5273   11.1379 C.ar    1  UNL1        0.0540
      5 C          61.9103   88.8969   10.3272 C.ar    1  UNL1        0.0475
      6 C          61.3773   87.5474   10.7077 C.ar    1  UNL1        0.1756
      7 F          60.2839   86.9170    9.8970 F       1  UNL1       -0.2009
      8 N          63.5367   90.8767   10.7574 N.am    1  UNL1       -0.2679
      9 C          64.3889   91.6460   11.7228 C.2     1  UNL1        0.3102
     10 O          64.7080   91.0658   13.0687 O.2     1  UNL1       -0.2521
     11 N          64.9219   92.9955   11.3422 N.am    1  UNL1       -0.2391
     12 C          65.7741   93.7648   12.3076 C.2     1  UNL1        0.2337
     13 O          66.0932   93.1845   13.6536 O.2     1  UNL1       -0.2743
     14 H          63.3272   91.2575    9.8740 H       1  UNL1        0.1564
     15 H          64.7125   93.3763   10.4588 H       1  UNL1        0.1591
     16 C          66.3072   95.1142   11.9271 C.3     1  UNL1        0.1118
     17 C          66.2911   95.5495   10.4917 C.ar    1  UNL1       -0.0129
     18 C          67.3955   95.1288    9.5680 C.ar    1  UNL1       -0.0015
     19 C          67.3795   95.5641    8.1327 C.ar    1  UNL1        0.0293
     20 C          66.2590   96.4200    7.6210 C.ar    1  UNL1        0.1401
     21 F          66.2430   96.8553    6.1856 F       1  UNL1       -0.2042
     22 C          65.1546   96.8407    8.5447 C.ar    1  UNL1        0.0293
     23 C          65.1706   96.4054    9.9800 C.ar    1  UNL1       -0.0015
     24 O          61.4045   85.4789   12.2795 O.3     1  UNL1       -0.4505
     25 C          63.3006   83.7027   12.2758 C.ar    1  UNL1        0.1081
     26 C          62.2774   84.5090   13.0194 C.ar    1  UNL1        0.1572
     27 C          62.1271   84.3454   14.5028 C.ar    1  UNL1        0.0589
     28 C          63.0000   83.3756   15.2427 C.ar    1  UNL1        0.1035
     29 N          64.0231   82.5693   14.4991 N.ar    1  UNL1       -0.2288
     30 C          64.1734   82.7329   13.0156 C.ar    1  UNL1        0.1361
     31 N          65.1967   81.9265   12.2721 N.pl3   1  UNL1       -0.3421
     32 H          65.7696   81.2900   12.7577 H       1  UNL1        0.1437
     33 H          65.2953   82.0338   11.2984 H       1  UNL1        0.1437
     34 C          63.6012   84.0298    9.3089 C.1     1  UNL1       -0.0090
     35 C          63.4509   83.8663   10.7923 C.1     1  UNL1       -0.0453
@<TRIPOS>BOND
     1    34    35    3
     2    35    25    1
     3    25    26   ar
     4    26    24    1
     5    24     1    1
     6     1     2   ar
     7     2     3   ar
     8     3     4   ar
     9     4     8    1
    10     8     9   am
    11     9    10    2
    12     9    11   am
    13    11    12   am
    14    12    13    2
    15    12    16    1
    16    16    17    1
    17    17    18   ar
    18    18    19   ar
    19    19    20   ar
    20    20    21    1
    21    20    22   ar
    22    22    23   ar
    23     4     5   ar
    24     5     6   ar
    25     6     7    1
    26    26    27   ar
    27    27    28   ar
    28    28    29   ar
    29    29    30   ar
    30    30    31    1
    31    30    25   ar
    32     6     1   ar
    33    23    17   ar
    34     8    14    1
    35    11    15    1
    36    31    32    1
    37    31    33    1
@<TRIPOS>MOLECULE
*****
 35 37 0 0 0
SMALL
GASTEIGER

@<TRIPOS>ATOM
      1 C          63.0124   85.6197   12.6957 C.ar    1  UNL1        0.1726
      2 C          61.9783   85.3119   11.6536 C.ar    1  UNL1        0.0411
      3 C          61.3882   86.4198   10.8324 C.ar    1  UNL1        0.0180
      4 C          61.8321   87.8355   11.0534 C.ar    1  UNL1        0.0540
      5 C          62.8662   88.1432   12.0955 C.ar    1  UNL1        0.0475
      6 C          63.4564   87.0354   12.9166 C.ar    1  UNL1        0.1756
      7 F          64.4904   87.3431   13.9587 F       1  UNL1       -0.2009
      8 N          61.2420   88.9433   10.2322 N.am    1  UNL1       -0.2679
      9 C          60.6019   88.6381    8.9105 C.2     1  UNL1        0.3102
     10 O          60.5519   87.2250    8.4098 O.2     1  UNL1       -0.2521
     11 N          60.0117   89.7461    8.0893 N.am    1  UNL1       -0.2391
     12 C          59.3716   89.4408    6.7675 C.2     1  UNL1        0.2337
     13 O          59.3216   88.0277    6.2669 O.2     1  UNL1       -0.2743
     14 H          61.2748   89.8708   10.5608 H       1  UNL1        0.1564
     15 H          60.0445   90.6735    8.4179 H       1  UNL1        0.1591
     16 C          58.7814   90.5487    5.9464 C.3     1  UNL1        0.1118
     17 C          59.6130   91.2333    4.9024 C.ar    1  UNL1       -0.0129
     18 C          61.0640   90.8844    4.7518 C.ar    1  UNL1       -0.0015
     19 C          61.8955   91.5691    3.7078 C.ar    1  UNL1        0.0293
     20 C          61.2760   92.6026    2.8146 C.ar    1  UNL1        0.1401
     21 F          62.1076   93.2873    1.7706 F       1  UNL1       -0.2042
     22 C          59.8250   92.9515    2.9652 C.ar    1  UNL1        0.0293
     23 C          58.9935   92.2669    4.0092 C.ar    1  UNL1       -0.0015
     24 O          63.6026   84.5118   13.5169 O.3     1  UNL1       -0.4505
     25 C          63.1972   82.2824   12.2457 C.ar    1  UNL1        0.1081
     26 C          63.0039   83.1374   13.4629 C.ar    1  UNL1        0.1572
     27 C          62.2120   82.6181   14.6262 C.ar    1  UNL1        0.0589
     28 C          61.6134   81.2438   14.5723 C.ar    1  UNL1        0.1035
     29 N          61.8067   80.3888   13.3551 N.ar    1  UNL1       -0.2288
     30 C          62.5986   80.9082   12.1918 C.ar    1  UNL1        0.1361
     31 N          62.7919   80.0531   10.9746 N.pl3   1  UNL1       -0.3421
     32 H          62.3990   79.1511   10.9392 H       1  UNL1        0.1437
     33 H          63.3117   80.3939   10.2111 H       1  UNL1        0.1437
     34 C          64.7811   83.3210    9.9192 C.1     1  UNL1       -0.0090
     35 C          63.9892   82.8017   11.0824 C.1     1  UNL1       -0.0453
@<TRIPOS>BOND
     1    34    35    3
     2    35    25    1
     3    25    26   ar
     4    26    24    1
     5    24     1    1
     6     1     2   ar
     7     2     3   ar
     8     3     4   ar
     9     4     8    1
    10     8     9   am
    11     9    10    2
    12     9    11   am
    13    11    12   am
    14    12    13    2
    15    12    16    1
    16    16    17    1
    17    17    18   ar
    18    18    19   ar
    19    19    20   ar
    20    20    21    1
    21    20    22   ar
    22    22    23   ar
    23     4     5   ar
    24     5     6   ar
    25     6     7    1
    26    26    27   ar
    27    27    28   ar
    28    28    29   ar
    29    29    30   ar
    30    30    31    1
    31    30    25   ar
    32     6     1   ar
    33    23    17   ar
    34     8    14    1
    35    11    15    1
    36    31    32    1
    37    31    33    1
@<TRIPOS>MOLECULE
*****
 35 37 0 0 0
SMALL
GASTEIGER

@<TRIPOS>ATOM
      1 C          64.2563   91.7796   11.6004 C.ar    1  UNL1        0.1726
      2 C          63.5358   91.1238   10.4598 C.ar    1  UNL1        0.0411
      3 C          62.9710   89.7439   10.6237 C.ar    1  UNL1        0.0180
      4 C          63.1267   89.0197   11.9280 C.ar    1  UNL1        0.0540
      5 C          63.8472   89.6755   13.0686 C.ar    1  UNL1        0.0475
      6 C          64.4120   91.0554   12.9048 C.ar    1  UNL1        0.1756
      7 F          65.1324   91.7112   14.0453 F       1  UNL1       -0.2009
      8 N          62.5620   87.6398   12.0918 N.am    1  UNL1       -0.2679
      9 C          63.1230   86.7187   13.1343 C.2     1  UNL1        0.3102
     10 O          64.2488   87.1774   14.0129 O.2     1  UNL1       -0.2521
     11 N          62.5582   85.3387   13.2980 N.am    1  UNL1       -0.2391
     12 C          63.1193   84.4176   14.3405 C.2     1  UNL1        0.2337
     13 O          64.2451   84.8764   15.2192 O.2     1  UNL1       -0.2743
     14 H          61.8231   87.3387   11.5151 H       1  UNL1        0.1564
     15 H          61.8193   85.0376   12.7213 H       1  UNL1        0.1591
     16 C          62.5545   83.0377   14.5043 C.3     1  UNL1        0.1118
     17 C          62.6559   82.0477   13.3820 C.ar    1  UNL1       -0.0129
     18 C          62.3309   80.6035   13.6241 C.ar    1  UNL1       -0.0015
     19 C          62.4323   79.6135   12.5018 C.ar    1  UNL1        0.0293
     20 C          62.8587   80.0677   11.1373 C.ar    1  UNL1        0.1401
     21 F          62.9600   79.0777   10.0149 F       1  UNL1       -0.2042
     22 C          63.1837   81.5119   10.8951 C.ar    1  UNL1        0.0293
     23 C          63.0823   82.5019   12.0175 C.ar    1  UNL1       -0.0015
     24 O          64.8210   93.1595   11.4366 O.3     1  UNL1       -0.4505
     25 C          66.4106   94.6540   10.0259 C.ar    1  UNL1        0.1081
     26 C          66.1251   93.3563   10.7219 C.ar    1  UNL1        0.1572
     27 C          67.1436   92.2553   10.7032 C.ar    1  UNL1        0.0589
     28 C          68.4476   92.4519    9.9885 C.ar    1  UNL1        0.1035
     29 N          68.7331   93.7496    9.2925 N.ar    1  UNL1       -0.2288
     30 C          67.7146   94.8507    9.3112 C.ar    1  UNL1        0.1361
     31 N          68.0001   96.1484    8.6152 N.pl3   1  UNL1       -0.3421
     32 H          68.8560   96.2775    8.1461 H       1  UNL1        0.1437
     33 H          67.3316   96.8711    8.6274 H       1  UNL1        0.1437
     34 C          64.3735   96.8560   10.0633 C.1     1  UNL1       -0.0090
     35 C          65.3920   95.7550   10.0446 C.1     1  UNL1       -0.0453
@<TRIPOS>BOND
     1    34    35    3
     2    35    25    1
     3    25    26   ar
     4    26    24    1
     5    24     1    1
     6     1     2   ar
     7     2     3   ar
     8     3     4   ar
     9     4     8    1
    10     8     9   am
    11     9    10    2
    12     9    11   am
    13    11    12   am
    14    12    13    2
    15    12    16    1
    16    16    17    1
    17    17    18   ar
    18    18    19   ar
    19    19    20   ar
    20    20    21    1
    21    20    22   ar
    22    22    23   ar
    23     4     5   ar
    24     5     6   ar
    25     6     7    1
    26    26    27   ar
    27    27    28   ar
    28    28    29   ar
    29    29    30   ar
    30    30    31    1
    31    30    25   ar
    32     6     1   ar
    33    23    17   ar
    34     8    14    1
    35    11    15    1
    36    31    32    1
    37    31    33    1
@<TRIPOS>MOLECULE
*****
 35 37 0 0 0
SMALL
GASTEIGER

@<TRIPOS>ATOM
      1 C          60.6590   87.2115    9.0655 C.ar    1  UNL1        0.1726
      2 C          60.7051   88.6840    9.3477 C.ar    1  UNL1        0.0411
      3 C          60.1056   89.6537    8.3728 C.ar    1  UNL1        0.0180
      4 C          59.4599   89.1508    7.1157 C.ar    1  UNL1        0.0540
      5 C          59.4138   87.6783    6.8335 C.ar    1  UNL1        0.0475
      6 C          60.0133   86.7087    7.8084 C.ar    1  UNL1        0.1756
      7 F          59.9672   85.2362    7.5262 F       1  UNL1       -0.2009
      8 N          58.8604   90.1204    6.1409 N.am    1  UNL1       -0.2679
      9 C          59.7421   90.8536    5.1739 C.2     1  UNL1        0.3102
     10 O          61.2233   90.6173    5.1819 O.2     1  UNL1       -0.2521
     11 N          59.1425   91.8233    4.1991 N.am    1  UNL1       -0.2391
     12 C          60.0242   92.5566    3.2321 C.2     1  UNL1        0.2337
     13 O          61.5055   92.3202    3.2401 O.2     1  UNL1       -0.2743
     14 H          57.8882   90.2755    6.1357 H       1  UNL1        0.1564
     15 H          58.1703   91.9784    4.1939 H       1  UNL1        0.1591
     16 C          59.4247   93.5262    2.2573 C.3     1  UNL1        0.1118
     17 C          59.8635   93.5157    0.8229 C.ar    1  UNL1       -0.0129
     18 C          61.1348   94.2038    0.4226 C.ar    1  UNL1       -0.0015
     19 C          61.5737   94.1933   -1.0117 C.ar    1  UNL1        0.0293
     20 C          60.7413   93.4948   -2.0457 C.ar    1  UNL1        0.1401
     21 F          61.1802   93.4844   -3.4800 F       1  UNL1       -0.2042
     22 C          59.4700   92.8068   -1.6453 C.ar    1  UNL1        0.0293
     23 C          59.0311   92.8172   -0.2110 C.ar    1  UNL1       -0.0015
     24 O          61.2586   86.2419   10.0404 O.3     1  UNL1       -0.4505
     25 C          62.7719   85.7694   12.0987 C.ar    1  UNL1        0.1081
     26 C          62.1102   86.7430   11.1690 C.ar    1  UNL1        0.1572
     27 C          62.3000   88.2175   11.3679 C.ar    1  UNL1        0.0589
     28 C          63.1516   88.7186   12.4965 C.ar    1  UNL1        0.1035
     29 N          63.8133   87.7451   13.4262 N.ar    1  UNL1       -0.2288
     30 C          63.6235   86.2705   13.2272 C.ar    1  UNL1        0.1361
     31 N          64.2853   85.2969   14.1570 N.pl3   1  UNL1       -0.3421
     32 H          64.8442   85.6258   14.8977 H       1  UNL1        0.1437
     33 H          64.1607   84.3291   14.0264 H       1  UNL1        0.1437
     34 C          62.3923   82.8203   11.7008 C.1     1  UNL1       -0.0090
     35 C          62.5821   84.2949   11.8997 C.1     1  UNL1       -0.0453
@<TRIPOS>BOND
     1    34    35    3
     2    35    25    1
     3    25    26   ar
     4    26    24    1
     5    24     1    1
     6     1     2   ar
     7     2     3   ar
     8     3     4   ar
     9     4     8    1
    10     8     9   am
    11     9    10    2
    12     9    11   am
    13    11    12   am
    14    12    13    2
    15    12    16    1
    16    16    17    1
    17    17    18   ar
    18    18    19   ar
    19    19    20   ar
    20    20    21    1
    21    20    22   ar
    22    22    23   ar
    23     4     5   ar
    24     5     6   ar
    25     6     7    1
    26    26    27   ar
    27    27    28   ar
    28    28    29   ar
    29    29    30   ar
    30    30    31    1
    31    30    25   ar
    32     6     1   ar
    33    23    17   ar
    34     8    14    1
    35    11    15    1
    36    31    32    1
    37    31    33    1
@<TRIPOS>MOLECULE
*****
 35 37 0 0 0
SMALL
GASTEIGER

@<TRIPOS>ATOM
      1 C          62.6629   85.6984   12.7141 C.ar    1  UNL1        0.1726
      2 C          63.5661   86.4593   13.6390 C.ar    1  UNL1        0.0411
      3 C          63.8143   87.9209   13.4105 C.ar    1  UNL1        0.0180
      4 C          63.1593   88.6216   12.2573 C.ar    1  UNL1        0.0540
      5 C          62.2561   87.8608   11.3325 C.ar    1  UNL1        0.0475
      6 C          62.0079   86.3992   11.5608 C.ar    1  UNL1        0.1756
      7 F          61.1047   85.6384   10.6360 F       1  UNL1       -0.2009
      8 N          63.4076   90.0832   12.0289 N.am    1  UNL1       -0.2679
      9 C          64.5123   90.7804   12.7660 C.2     1  UNL1        0.3102
     10 O          65.3689   90.0162   13.7315 O.2     1  UNL1       -0.2521
     11 N          64.7605   92.2421   12.5376 N.am    1  UNL1       -0.2391
     12 C          65.8653   92.9394   13.2747 C.2     1  UNL1        0.2337
     13 O          66.7218   92.1750   14.2402 O.2     1  UNL1       -0.2743
     14 H          62.8454   90.5848   11.3953 H       1  UNL1        0.1564
     15 H          64.1983   92.7437   11.9040 H       1  UNL1        0.1591
     16 C          66.1135   94.4009   13.0464 C.3     1  UNL1        0.1118
     17 C          66.4704   94.8959   11.6761 C.ar    1  UNL1       -0.0129
     18 C          66.9058   93.9259   10.6181 C.ar    1  UNL1       -0.0015
     19 C          67.2626   94.4210    9.2478 C.ar    1  UNL1        0.0293
     20 C          67.1841   95.8860    8.9356 C.ar    1  UNL1        0.1401
     21 F          67.5409   96.3810    7.5653 F       1  UNL1       -0.2042
     22 C          66.7487   96.8560    9.9936 C.ar    1  UNL1        0.0293
     23 C          66.3918   96.3609   11.3639 C.ar    1  UNL1       -0.0015
     24 O          62.4147   84.2369   12.9425 O.3     1  UNL1       -0.4505
     25 C          62.5855   81.7799   12.1153 C.ar    1  UNL1        0.1081
     26 C          62.9742   83.2231   11.9888 C.ar    1  UNL1        0.1572
     27 C          63.9223   83.6526   10.9088 C.ar    1  UNL1        0.0589
     28 C          64.4818   82.6389    9.9552 C.ar    1  UNL1        0.1035
     29 N          64.0931   81.1957   10.0816 N.ar    1  UNL1       -0.2288
     30 C          63.1450   80.7662   11.1617 C.ar    1  UNL1        0.1361
     31 N          62.7563   79.3229   11.2881 N.pl3   1  UNL1       -0.3421
     32 H          63.1235   78.6576   10.6622 H       1  UNL1        0.1437
     33 H          62.1340   79.0410   11.9970 H       1  UNL1        0.1437
     34 C          60.6893   80.9208   14.2754 C.1     1  UNL1       -0.0090
     35 C          61.6374   81.3504   13.1954 C.1     1  UNL1       -0.0453
@<TRIPOS>BOND
     1    34    35    3
     2    35    25    1
     3    25    26   ar
     4    26    24    1
     5    24     1    1
     6     1     2   ar
     7     2     3   ar
     8     3     4   ar
     9     4     8    1
    10     8     9   am
    11     9    10    2
    12     9    11   am
    13    11    12   am
    14    12    13    2
    15    12    16    1
    16    16    17    1
    17    17    18   ar
    18    18    19   ar
    19    19    20   ar
    20    20    21    1
    21    20    22   ar
    22    22    23   ar
    23     4     5   ar
    24     5     6   ar
    25     6     7    1
    26    26    27   ar
    27    27    28   ar
    28    28    29   ar
    29    29    30   ar
    30    30    31    1
    31    30    25   ar
    32     6     1   ar
    33    23    17   ar
    34     8    14    1
    35    11    15    1
    36    31    32    1
    37    31    33    1
@<TRIPOS>MOLECULE
*****
 35 37 0 0 0
SMALL
GASTEIGER

@<TRIPOS>ATOM
      1 C          72.8605   73.6850   14.8472 C.ar    1  UNL1        0.1726
      2 C          72.3569   75.0205   15.3086 C.ar    1  UNL1        0.0411
      3 C          71.8972   76.0362   14.3050 C.ar    1  UNL1        0.0180
      4 C          71.9410   75.7164   12.8402 C.ar    1  UNL1        0.0540
      5 C          72.4446   74.3809   12.3789 C.ar    1  UNL1        0.0475
      6 C          72.9043   73.3652   13.3823 C.ar    1  UNL1        0.1756
      7 F          73.4079   72.0297   12.9210 F       1  UNL1       -0.2009
      8 N          71.4813   76.7321   11.8367 N.am    1  UNL1       -0.2679
      9 C          72.1982   78.0440   11.7151 C.2     1  UNL1        0.3102
     10 O          73.3749   78.3403   12.5968 O.2     1  UNL1       -0.2521
     11 N          71.7384   79.0597   10.7115 N.am    1  UNL1       -0.2391
     12 C          72.4553   80.3717   10.5898 C.2     1  UNL1        0.2337
     13 O          73.6321   80.6679   11.4717 O.2     1  UNL1       -0.2743
     14 H          70.7090   76.5376   11.2580 H       1  UNL1        0.1564
     15 H          70.9661   78.8653   10.1327 H       1  UNL1        0.1591
     16 C          71.9956   81.3873    9.5864 C.3     1  UNL1        0.1118
     17 C          72.3301   81.2122    8.1347 C.ar    1  UNL1       -0.0129
     18 C          71.7900   82.1748    7.1191 C.ar    1  UNL1       -0.0015
     19 C          72.1245   81.9996    5.6674 C.ar    1  UNL1        0.0293
     20 C          72.9992   80.8618    5.2313 C.ar    1  UNL1        0.1401
     21 F          73.3338   80.6866    3.7796 F       1  UNL1       -0.2042
     22 C          73.5394   79.8991    6.2469 C.ar    1  UNL1        0.0293
     23 C          73.2048   80.0743    7.6986 C.ar    1  UNL1       -0.0015
     24 O          73.3202   72.6694   15.8507 O.3     1  UNL1       -0.4505
     25 C          71.6932   71.0798   17.1061 C.ar    1  UNL1        0.1081
     26 C          72.4714   72.3608   17.0484 C.ar    1  UNL1        0.1572
     27 C          72.4009   73.3332   18.1883 C.ar    1  UNL1        0.0589
     28 C          71.5522   73.0247   19.3859 C.ar    1  UNL1        0.1035
     29 N          70.7739   71.7437   19.4437 N.ar    1  UNL1       -0.2288
     30 C          70.8444   70.7713   18.3038 C.ar    1  UNL1        0.1361
     31 N          70.0661   69.4903   18.3615 N.pl3   1  UNL1       -0.3421
     32 H          69.5090   69.2878   19.1476 H       1  UNL1        0.1437
     33 H          70.1123   68.8520   17.6134 H       1  UNL1        0.1437
     34 C          71.8341   69.1350   14.8263 C.1     1  UNL1       -0.0090
     35 C          71.7636   70.1074   15.9662 C.1     1  UNL1       -0.0453
@<TRIPOS>BOND
     1    34    35    3
     2    35    25    1
     3    25    26   ar
     4    26    24    1
     5    24     1    1
     6     1     2   ar
     7     2     3   ar
     8     3     4   ar
     9     4     8    1
    10     8     9   am
    11     9    10    2
    12     9    11   am
    13    11    12   am
    14    12    13    2
    15    12    16    1
    16    16    17    1
    17    17    18   ar
    18    18    19   ar
    19    19    20   ar
    20    20    21    1
    21    20    22   ar
    22    22    23   ar
    23     4     5   ar
    24     5     6   ar
    25     6     7    1
    26    26    27   ar
    27    27    28   ar
    28    28    29   ar
    29    29    30   ar
    30    30    31    1
    31    30    25   ar
    32     6     1   ar
    33    23    17   ar
    34     8    14    1
    35    11    15    1
    36    31    32    1
    37    31    33    1
