@<TRIPOS>MOLECULE
*****
 28 32 0 0 0
SMALL
GASTEIGER

@<TRIPOS>ATOM
      1 O          59.0333   85.4495    7.7812 O.2     1  UNL1       -0.2443
      2 C          59.4233   86.8978    7.7989 C.ar    1  UNL1        0.3527
      3 N          58.8724   87.8356    6.7660 N.ar    1  UNL1       -0.1570
      4 C          59.2625   89.2839    6.7837 C.ar    1  UNL1        0.2303
      5 C          60.2035   89.7944    7.8343 C.ar    1  UNL1        0.0751
      6 C          60.7545   88.8566    8.8672 C.ar    1  UNL1        0.0682
      7 N          60.3644   87.4083    8.8495 N.ar    1  UNL1       -0.2794
      8 C          60.9154   86.4705    9.8825 C.3     1  UNL1        0.1152
      9 C          61.8565   86.9810   10.9331 C.3     1  UNL1        0.0510
     10 C          62.2466   88.4293   10.9508 C.ar    1  UNL1       -0.0182
     11 C          63.1876   88.9398   12.0014 C.ar    1  UNL1        0.0041
     12 C          63.5776   90.3880   12.0191 C.ar    1  UNL1        0.0413
     13 C          63.0266   91.3258   10.9862 C.ar    1  UNL1        0.0083
     14 C          62.0856   90.8154    9.9355 C.ar    1  UNL1        0.0017
     15 C          61.6956   89.3671    9.9179 C.ar    1  UNL1        0.0122
     16 C          64.5187   90.8986   13.0697 C.1     1  UNL1       -0.0644
     17 C          65.4598   91.4090   14.1203 C.1     1  UNL1       -0.0874
     18 C          66.4009   91.9196   15.1710 C.3     1  UNL1        0.0645
     19 C          66.6391   92.6710   16.4472 C.3     1  UNL1        0.0140
     20 C          67.7926   92.0524   15.7145 C.3     1  UNL1        0.0140
     21 O          58.7115   90.2217    5.7507 O.3     1  UNL1       -0.4574
     22 C          59.3007   91.5918    5.5912 C.3     1  UNL1        0.2390
     23 C          60.2554   91.8716    4.4686 C.3     1  UNL1        0.1882
     24 C          59.8355   92.7517    3.3287 C.3     1  UNL1        0.1755
     25 O          60.7902   93.0315    2.2061 O.3     1  UNL1       -0.3484
     26 C          62.1648   92.4312    2.2233 C.3     1  UNL1        0.1742
     27 C          62.5846   91.5512    3.3632 C.3     1  UNL1        0.1743
     28 O          61.6299   91.2714    4.4858 O.3     1  UNL1       -0.3472
@<TRIPOS>BOND
     1     1     2    2
     2     2     3   ar
     3     3     4   ar
     4     4    21    1
     5    21    22    1
     6    23    22    1
     7    23    24    1
     8    24    25    1
     9    25    26    1
    10    26    27    1
    11    27    28    1
    12     4     5   ar
    13     5     6   ar
    14     6     7   ar
    15     7     8    1
    16     8     9    1
    17     9    10    1
    18    10    11   ar
    19    11    12   ar
    20    12    16    1
    21    16    17    3
    22    17    18    1
    23    18    19    1
    24    19    20    1
    25    12    13   ar
    26    13    14   ar
    27    14    15   ar
    28     7     2   ar
    29    15    10   ar
    30    28    23    1
    31    15     6    1
    32    20    18    1
@<TRIPOS>MOLECULE
*****
 28 32 0 0 0
SMALL
GASTEIGER

@<TRIPOS>ATOM
      1 O          62.0340   91.4573   10.7991 O.2     1  UNL1       -0.2443
      2 C          62.5783   90.4489   11.7670 C.ar    1  UNL1        0.3527
      3 N          63.1399   90.8995   13.0829 N.ar    1  UNL1       -0.1570
      4 C          63.6842   89.8911   14.0508 C.ar    1  UNL1        0.2303
      5 C          63.6669   88.4321   13.7029 C.ar    1  UNL1        0.0751
      6 C          63.1052   87.9816   12.3870 C.ar    1  UNL1        0.0682
      7 N          62.5609   88.9899   11.4191 N.ar    1  UNL1       -0.2794
      8 C          61.9993   88.5393   10.1032 C.3     1  UNL1        0.1152
      9 C          61.9820   87.0804    9.7552 C.3     1  UNL1        0.0510
     10 C          62.5263   86.0719   10.7232 C.ar    1  UNL1       -0.0182
     11 C          62.5090   84.6130   10.3752 C.ar    1  UNL1        0.0041
     12 C          63.0533   83.6046   11.3431 C.ar    1  UNL1        0.0413
     13 C          63.6149   84.0552   12.6590 C.ar    1  UNL1        0.0083
     14 C          63.6322   85.5142   13.0070 C.ar    1  UNL1        0.0017
     15 C          63.0879   86.5225   12.0390 C.ar    1  UNL1        0.0122
     16 C          63.0360   82.1456   10.9952 C.1     1  UNL1       -0.0644
     17 C          63.0186   80.6866   10.6473 C.1     1  UNL1       -0.0874
     18 C          63.0013   79.2276   10.2994 C.3     1  UNL1        0.0645
     19 C          62.5799   77.8224   10.6122 C.3     1  UNL1        0.0140
     20 C          63.3927   78.1057    9.3838 C.3     1  UNL1        0.0140
     21 O          64.2458   90.3417   15.3667 O.3     1  UNL1       -0.4574
     22 C          64.7542   91.7440   15.5245 C.3     1  UNL1        0.2390
     23 C          66.1941   92.0559   15.2427 C.3     1  UNL1        0.1882
     24 C          66.7284   91.9351   13.8462 C.3     1  UNL1        0.1755
     25 O          68.1683   92.2470   13.5645 O.3     1  UNL1       -0.3484
     26 C          69.0740   92.6797   14.6793 C.3     1  UNL1        0.1742
     27 C          68.5397   92.8005   16.0756 C.3     1  UNL1        0.1743
     28 O          67.0998   92.4886   16.3574 O.3     1  UNL1       -0.3472
@<TRIPOS>BOND
     1     1     2    2
     2     2     3   ar
     3     3     4   ar
     4     4    21    1
     5    21    22    1
     6    23    22    1
     7    23    24    1
     8    24    25    1
     9    25    26    1
    10    26    27    1
    11    27    28    1
    12     4     5   ar
    13     5     6   ar
    14     6     7   ar
    15     7     8    1
    16     8     9    1
    17     9    10    1
    18    10    11   ar
    19    11    12   ar
    20    12    16    1
    21    16    17    3
    22    17    18    1
    23    18    19    1
    24    19    20    1
    25    12    13   ar
    26    13    14   ar
    27    14    15   ar
    28     7     2   ar
    29    15    10   ar
    30    28    23    1
    31    15     6    1
    32    20    18    1
@<TRIPOS>MOLECULE
*****
 28 32 0 0 0
SMALL
GASTEIGER

@<TRIPOS>ATOM
      1 O          62.7721   91.9837   10.0775 O.2     1  UNL1       -0.2443
      2 C          63.2546   91.2406   11.2878 C.ar    1  UNL1        0.3527
      3 N          63.9287   91.9822   12.4038 N.ar    1  UNL1       -0.1570
      4 C          64.4112   91.2390   13.6142 C.ar    1  UNL1        0.2303
      5 C          64.2196   89.7543   13.7084 C.ar    1  UNL1        0.0751
      6 C          63.5454   89.0127   12.5924 C.ar    1  UNL1        0.0682
      7 N          63.0629   89.7559   11.3821 N.ar    1  UNL1       -0.2794
      8 C          62.3888   89.0143   10.2660 C.3     1  UNL1        0.1152
      9 C          62.1971   87.5296   10.3602 C.3     1  UNL1        0.0510
     10 C          62.6796   86.7864   11.5706 C.ar    1  UNL1       -0.0182
     11 C          62.4880   85.3017   11.6649 C.ar    1  UNL1        0.0041
     12 C          62.9705   84.5586   12.8752 C.ar    1  UNL1        0.0413
     13 C          63.6446   85.3001   13.9912 C.ar    1  UNL1        0.0083
     14 C          63.8363   86.7848   13.8970 C.ar    1  UNL1        0.0017
     15 C          63.3538   87.5280   12.6867 C.ar    1  UNL1        0.0122
     16 C          62.7789   83.0738   12.9695 C.1     1  UNL1       -0.0644
     17 C          62.5873   81.5891   13.0638 C.1     1  UNL1       -0.0874
     18 C          62.3956   80.1044   13.1581 C.3     1  UNL1        0.0645
     19 C          62.0379   78.8891   13.9613 C.3     1  UNL1        0.0140
     20 C          62.4215   78.7480   12.5181 C.3     1  UNL1        0.0140
     21 O          65.0854   91.9805   14.7303 O.3     1  UNL1       -0.4574
     22 C          66.3098   92.8015   14.4532 C.3     1  UNL1        0.2390
     23 C          66.5956   93.2749   13.0589 C.3     1  UNL1        0.1882
     24 C          67.3799   92.4084   12.1186 C.3     1  UNL1        0.1755
     25 O          67.6658   92.8818   10.7243 O.3     1  UNL1       -0.3484
     26 C          67.1673   94.2218   10.2702 C.3     1  UNL1        0.1742
     27 C          66.3831   95.0883   11.2105 C.3     1  UNL1        0.1743
     28 O          66.0972   94.6148   12.6048 O.3     1  UNL1       -0.3472
@<TRIPOS>BOND
     1     1     2    2
     2     2     3   ar
     3     3     4   ar
     4     4    21    1
     5    21    22    1
     6    23    22    1
     7    23    24    1
     8    24    25    1
     9    25    26    1
    10    26    27    1
    11    27    28    1
    12     4     5   ar
    13     5     6   ar
    14     6     7   ar
    15     7     8    1
    16     8     9    1
    17     9    10    1
    18    10    11   ar
    19    11    12   ar
    20    12    16    1
    21    16    17    3
    22    17    18    1
    23    18    19    1
    24    19    20    1
    25    12    13   ar
    26    13    14   ar
    27    14    15   ar
    28     7     2   ar
    29    15    10   ar
    30    28    23    1
    31    15     6    1
    32    20    18    1
@<TRIPOS>MOLECULE
*****
 28 32 0 0 0
SMALL
GASTEIGER

@<TRIPOS>ATOM
      1 O          73.3452   82.4404   11.4278 O.2     1  UNL1       -0.2443
      2 C          73.2578   81.0129   10.9756 C.ar    1  UNL1        0.3527
      3 N          73.4754   80.6689    9.5319 N.ar    1  UNL1       -0.1570
      4 C          73.3880   79.2413    9.0797 C.ar    1  UNL1        0.2303
      5 C          73.0831   78.1578   10.0712 C.ar    1  UNL1        0.0751
      6 C          72.8656   78.5018   11.5149 C.ar    1  UNL1        0.0682
      7 N          72.9529   79.9293   11.9671 N.ar    1  UNL1       -0.2794
      8 C          72.7354   80.2733   13.4108 C.3     1  UNL1        0.1152
      9 C          72.4305   79.1899   14.4023 C.3     1  UNL1        0.0510
     10 C          72.3431   77.7623   13.9501 C.ar    1  UNL1       -0.0182
     11 C          72.0383   76.6788   14.9416 C.ar    1  UNL1        0.0041
     12 C          71.9509   75.2513   14.4893 C.ar    1  UNL1        0.0413
     13 C          72.1685   74.9073   13.0456 C.ar    1  UNL1        0.0083
     14 C          72.4733   75.9908   12.0541 C.ar    1  UNL1        0.0017
     15 C          72.5607   77.4183   12.5064 C.ar    1  UNL1        0.0122
     16 C          71.6460   74.1677   15.4808 C.1     1  UNL1       -0.0644
     17 C          71.3411   73.0842   16.4723 C.1     1  UNL1       -0.0874
     18 C          71.0362   72.0007   17.4638 C.3     1  UNL1        0.0645
     19 C          70.9549   70.5439   17.8121 C.3     1  UNL1        0.0140
     20 C          70.5894   71.5807   18.8327 C.3     1  UNL1        0.0140
     21 O          73.6056   78.8972    7.6360 O.3     1  UNL1       -0.4574
     22 C          72.5615   79.2447    6.6166 C.3     1  UNL1        0.2390
     23 C          72.7785   80.3996    5.6843 C.3     1  UNL1        0.1882
     24 C          72.3579   81.7809    6.0909 C.3     1  UNL1        0.1755
     25 O          72.5749   82.9358    5.1586 O.3     1  UNL1       -0.3484
     26 C          73.2125   82.7094    3.8198 C.3     1  UNL1        0.1742
     27 C          73.6330   81.3281    3.4133 C.3     1  UNL1        0.1743
     28 O          73.4160   80.1732    4.3456 O.3     1  UNL1       -0.3472
@<TRIPOS>BOND
     1     1     2    2
     2     2     3   ar
     3     3     4   ar
     4     4    21    1
     5    21    22    1
     6    23    22    1
     7    23    24    1
     8    24    25    1
     9    25    26    1
    10    26    27    1
    11    27    28    1
    12     4     5   ar
    13     5     6   ar
    14     6     7   ar
    15     7     8    1
    16     8     9    1
    17     9    10    1
    18    10    11   ar
    19    11    12   ar
    20    12    16    1
    21    16    17    3
    22    17    18    1
    23    18    19    1
    24    19    20    1
    25    12    13   ar
    26    13    14   ar
    27    14    15   ar
    28     7     2   ar
    29    15    10   ar
    30    28    23    1
    31    15     6    1
    32    20    18    1
@<TRIPOS>MOLECULE
*****
 28 32 0 0 0
SMALL
GASTEIGER

@<TRIPOS>ATOM
      1 O          59.9887   96.8376   -3.0358 O.2     1  UNL1       -0.2443
      2 C          61.0760   96.1444   -2.2696 C.ar    1  UNL1        0.3527
      3 N          62.5064   96.2944   -2.6954 N.ar    1  UNL1       -0.1570
      4 C          63.5938   95.6011   -1.9291 C.ar    1  UNL1        0.2303
      5 C          63.2506   94.7579   -0.7370 C.ar    1  UNL1        0.0751
      6 C          61.8202   94.6079   -0.3111 C.ar    1  UNL1        0.0682
      7 N          60.7329   95.3011   -1.0774 N.ar    1  UNL1       -0.2794
      8 C          59.3025   95.1511   -0.6515 C.3     1  UNL1        0.1152
      9 C          58.9593   94.3079    0.5406 C.3     1  UNL1        0.0510
     10 C          60.0467   93.6146    1.3069 C.ar    1  UNL1       -0.0182
     11 C          59.7035   92.7714    2.4990 C.ar    1  UNL1        0.0041
     12 C          60.7908   92.0782    3.2653 C.ar    1  UNL1        0.0413
     13 C          62.2213   92.2282    2.8394 C.ar    1  UNL1        0.0083
     14 C          62.5644   93.0714    1.6473 C.ar    1  UNL1        0.0017
     15 C          61.4771   93.7646    0.8810 C.ar    1  UNL1        0.0122
     16 C          60.4477   91.2349    4.4575 C.1     1  UNL1       -0.0644
     17 C          60.1047   90.3916    5.6496 C.1     1  UNL1       -0.0874
     18 C          59.7616   89.5484    6.8418 C.3     1  UNL1        0.0645
     19 C          59.9205   89.2344    8.2999 C.3     1  UNL1        0.0140
     20 C          59.0084   88.4018    7.4485 C.3     1  UNL1        0.0140
     21 O          65.0242   95.7512   -2.3550 O.3     1  UNL1       -0.4574
     22 C          65.3578   95.9610   -3.8023 C.3     1  UNL1        0.2390
     23 C          64.9522   94.9378   -4.8214 C.3     1  UNL1        0.1882
     24 C          64.6549   95.3593   -6.2300 C.3     1  UNL1        0.1755
     25 O          64.2494   94.3361   -7.2492 O.3     1  UNL1       -0.3484
     26 C          64.1411   92.8915   -6.8597 C.3     1  UNL1        0.1742
     27 C          64.4384   92.4702   -5.4512 C.3     1  UNL1        0.1743
     28 O          64.8440   93.4934   -4.4320 O.3     1  UNL1       -0.3472
@<TRIPOS>BOND
     1     1     2    2
     2     2     3   ar
     3     3     4   ar
     4     4    21    1
     5    21    22    1
     6    23    22    1
     7    23    24    1
     8    24    25    1
     9    25    26    1
    10    26    27    1
    11    27    28    1
    12     4     5   ar
    13     5     6   ar
    14     6     7   ar
    15     7     8    1
    16     8     9    1
    17     9    10    1
    18    10    11   ar
    19    11    12   ar
    20    12    16    1
    21    16    17    3
    22    17    18    1
    23    18    19    1
    24    19    20    1
    25    12    13   ar
    26    13    14   ar
    27    14    15   ar
    28     7     2   ar
    29    15    10   ar
    30    28    23    1
    31    15     6    1
    32    20    18    1
@<TRIPOS>MOLECULE
*****
 28 32 0 0 0
SMALL
GASTEIGER

@<TRIPOS>ATOM
      1 O          62.4098   86.7874   19.1635 O.2     1  UNL1       -0.2443
      2 C          62.6954   86.6259   17.6998 C.ar    1  UNL1        0.3527
      3 N          62.5840   85.2744   17.0586 N.ar    1  UNL1       -0.1570
      4 C          62.8696   85.1130   15.5948 C.ar    1  UNL1        0.2303
      5 C          63.2666   86.3029   14.7725 C.ar    1  UNL1        0.0751
      6 C          63.3780   87.6544   15.4137 C.ar    1  UNL1        0.0682
      7 N          63.0924   87.8159   16.8774 N.ar    1  UNL1       -0.2794
      8 C          63.2038   89.1673   17.5186 C.3     1  UNL1        0.1152
      9 C          63.6008   90.3573   16.6962 C.3     1  UNL1        0.0510
     10 C          63.8864   90.1958   15.2325 C.ar    1  UNL1       -0.0182
     11 C          64.2834   91.3858   14.4101 C.ar    1  UNL1        0.0041
     12 C          64.5690   91.2243   12.9465 C.ar    1  UNL1        0.0413
     13 C          64.4577   89.8728   12.3052 C.ar    1  UNL1        0.0083
     14 C          64.0607   88.6829   13.1276 C.ar    1  UNL1        0.0017
     15 C          63.7750   88.8444   14.5912 C.ar    1  UNL1        0.0122
     16 C          64.9661   92.4143   12.1240 C.1     1  UNL1       -0.0644
     17 C          65.3631   93.6042   11.3016 C.1     1  UNL1       -0.0874
     18 C          65.7601   94.7941   10.4791 C.3     1  UNL1        0.0645
     19 C          65.6235   96.2519   10.1530 C.3     1  UNL1        0.0140
     20 C          66.5844   95.3974    9.3806 C.3     1  UNL1        0.0140
     21 O          62.7582   83.7616   14.9536 O.3     1  UNL1       -0.4574
     22 C          63.8688   83.2498   14.0849 C.3     1  UNL1        0.2390
     23 C          63.8048   83.4365   12.5980 C.3     1  UNL1        0.1882
     24 C          64.5427   82.4962   11.6915 C.3     1  UNL1        0.1755
     25 O          64.4787   82.6830   10.2046 O.3     1  UNL1       -0.3484
     26 C          63.6768   83.8100    9.6241 C.3     1  UNL1        0.1742
     27 C          62.9391   84.7502   10.5305 C.3     1  UNL1        0.1743
     28 O          63.0030   84.5634   12.0174 O.3     1  UNL1       -0.3472
@<TRIPOS>BOND
     1     1     2    2
     2     2     3   ar
     3     3     4   ar
     4     4    21    1
     5    21    22    1
     6    23    22    1
     7    23    24    1
     8    24    25    1
     9    25    26    1
    10    26    27    1
    11    27    28    1
    12     4     5   ar
    13     5     6   ar
    14     6     7   ar
    15     7     8    1
    16     8     9    1
    17     9    10    1
    18    10    11   ar
    19    11    12   ar
    20    12    16    1
    21    16    17    3
    22    17    18    1
    23    18    19    1
    24    19    20    1
    25    12    13   ar
    26    13    14   ar
    27    14    15   ar
    28     7     2   ar
    29    15    10   ar
    30    28    23    1
    31    15     6    1
    32    20    18    1
@<TRIPOS>MOLECULE
*****
 28 32 0 0 0
SMALL
GASTEIGER

@<TRIPOS>ATOM
      1 O          62.4095   91.5733    9.3074 O.2     1  UNL1       -0.2443
      2 C          62.8691   90.9349   10.5845 C.ar    1  UNL1        0.3527
      3 N          63.4775   91.7763   11.6671 N.ar    1  UNL1       -0.1570
      4 C          63.9371   91.1378   12.9443 C.ar    1  UNL1        0.2303
      5 C          63.7885   89.6579   13.1388 C.ar    1  UNL1        0.0751
      6 C          63.1801   88.8165   12.0562 C.ar    1  UNL1        0.0682
      7 N          62.7205   89.4550   10.7791 N.ar    1  UNL1       -0.2794
      8 C          62.1121   88.6135    9.6966 C.3     1  UNL1        0.1152
      9 C          61.9634   87.1337    9.8911 C.3     1  UNL1        0.0510
     10 C          62.4231   86.4952   11.1683 C.ar    1  UNL1       -0.0182
     11 C          62.2744   85.0153   11.3628 C.ar    1  UNL1        0.0041
     12 C          62.7341   84.3769   12.6400 C.ar    1  UNL1        0.0413
     13 C          63.3424   85.2183   13.7225 C.ar    1  UNL1        0.0083
     14 C          63.4911   86.6982   13.5280 C.ar    1  UNL1        0.0017
     15 C          63.0314   87.3366   12.2509 C.ar    1  UNL1        0.0122
     16 C          62.5854   82.8970   12.8346 C.1     1  UNL1       -0.0644
     17 C          62.4367   81.4171   13.0291 C.1     1  UNL1       -0.0874
     18 C          62.2881   79.9372   13.2237 C.3     1  UNL1        0.0645
     19 C          61.6874   78.7779   13.9621 C.3     1  UNL1        0.0140
     20 C          62.6313   78.5333   12.8223 C.3     1  UNL1        0.0140
     21 O          64.5455   91.9792   14.0268 O.3     1  UNL1       -0.4574
     22 C          65.6063   91.4035   14.9174 C.3     1  UNL1        0.2390
     23 C          66.9362   92.0868   15.0382 C.3     1  UNL1        0.1882
     24 C          68.0055   91.8326   14.0174 C.3     1  UNL1        0.1755
     25 O          69.3354   92.5158   14.1382 O.3     1  UNL1       -0.3484
     26 C          69.5959   93.4533   15.2799 C.3     1  UNL1        0.1742
     27 C          68.5266   93.7075   16.3006 C.3     1  UNL1        0.1743
     28 O          67.1967   93.0242   16.1798 O.3     1  UNL1       -0.3472
@<TRIPOS>BOND
     1     1     2    2
     2     2     3   ar
     3     3     4   ar
     4     4    21    1
     5    21    22    1
     6    23    22    1
     7    23    24    1
     8    24    25    1
     9    25    26    1
    10    26    27    1
    11    27    28    1
    12     4     5   ar
    13     5     6   ar
    14     6     7   ar
    15     7     8    1
    16     8     9    1
    17     9    10    1
    18    10    11   ar
    19    11    12   ar
    20    12    16    1
    21    16    17    3
    22    17    18    1
    23    18    19    1
    24    19    20    1
    25    12    13   ar
    26    13    14   ar
    27    14    15   ar
    28     7     2   ar
    29    15    10   ar
    30    28    23    1
    31    15     6    1
    32    20    18    1
@<TRIPOS>MOLECULE
*****
 28 32 0 0 0
SMALL
GASTEIGER

@<TRIPOS>ATOM
      1 O          60.0236   89.0654    8.1782 O.2     1  UNL1       -0.2443
      2 C          60.7820   88.4828    9.3338 C.ar    1  UNL1        0.3527
      3 N          60.5602   87.0539    9.7326 N.ar    1  UNL1       -0.1570
      4 C          61.3187   86.4713   10.8882 C.ar    1  UNL1        0.2303
      5 C          62.2990   87.3176   11.6449 C.ar    1  UNL1        0.0751
      6 C          62.5208   88.7465   11.2461 C.ar    1  UNL1        0.0682
      7 N          61.7624   89.3291   10.0906 N.ar    1  UNL1       -0.2794
      8 C          61.9842   90.7580    9.6918 C.3     1  UNL1        0.1152
      9 C          62.9645   91.6043   10.4486 C.3     1  UNL1        0.0510
     10 C          63.7230   91.0218   11.6042 C.ar    1  UNL1       -0.0182
     11 C          64.7033   91.8681   12.3609 C.ar    1  UNL1        0.0041
     12 C          65.4617   91.2855   13.5165 C.ar    1  UNL1        0.0413
     13 C          65.2399   89.8566   13.9153 C.ar    1  UNL1        0.0083
     14 C          64.2596   89.0103   13.1585 C.ar    1  UNL1        0.0017
     15 C          63.5012   89.5929   12.0030 C.ar    1  UNL1        0.0122
     16 C          66.4421   92.1318   14.2733 C.1     1  UNL1       -0.0644
     17 C          67.4224   92.9781   15.0301 C.1     1  UNL1       -0.0874
     18 C          68.4027   93.8244   15.7870 C.3     1  UNL1        0.0645
     19 C          69.0131   95.1646   16.0724 C.3     1  UNL1        0.0140
     20 C          69.4903   93.9501   16.8123 C.3     1  UNL1        0.0140
     21 O          61.0968   85.0424   11.2870 O.3     1  UNL1       -0.4574
     22 C          62.2595   84.0988   11.3736 C.3     1  UNL1        0.2390
     23 C          62.9152   83.8360   12.6969 C.3     1  UNL1        0.1882
     24 C          62.5979   82.5811   13.4551 C.3     1  UNL1        0.1755
     25 O          63.2536   82.3184   14.7783 O.3     1  UNL1       -0.3484
     26 C          64.2266   83.3104   15.3434 C.3     1  UNL1        0.1742
     27 C          64.5438   84.5652   14.5852 C.3     1  UNL1        0.1743
     28 O          63.8881   84.8279   13.2619 O.3     1  UNL1       -0.3472
@<TRIPOS>BOND
     1     1     2    2
     2     2     3   ar
     3     3     4   ar
     4     4    21    1
     5    21    22    1
     6    23    22    1
     7    23    24    1
     8    24    25    1
     9    25    26    1
    10    26    27    1
    11    27    28    1
    12     4     5   ar
    13     5     6   ar
    14     6     7   ar
    15     7     8    1
    16     8     9    1
    17     9    10    1
    18    10    11   ar
    19    11    12   ar
    20    12    16    1
    21    16    17    3
    22    17    18    1
    23    18    19    1
    24    19    20    1
    25    12    13   ar
    26    13    14   ar
    27    14    15   ar
    28     7     2   ar
    29    15    10   ar
    30    28    23    1
    31    15     6    1
    32    20    18    1
@<TRIPOS>MOLECULE
*****
 28 32 0 0 0
SMALL
GASTEIGER

@<TRIPOS>ATOM
      1 O          59.4054   92.6671    2.1594 O.2     1  UNL1       -0.2443
      2 C          59.2398   93.1980    0.7664 C.ar    1  UNL1        0.3527
      3 N          57.8684   93.3368    0.1748 N.ar    1  UNL1       -0.1570
      4 C          57.7028   93.8679   -1.2183 C.ar    1  UNL1        0.2303
      5 C          58.9086   94.2600   -2.0197 C.ar    1  UNL1        0.0751
      6 C          60.2800   94.1212   -1.4281 C.ar    1  UNL1        0.0682
      7 N          60.4456   93.5902   -0.0351 N.ar    1  UNL1       -0.2794
      8 C          61.8170   93.4514    0.5565 C.3     1  UNL1        0.1152
      9 C          63.0227   93.8436   -0.2449 C.3     1  UNL1        0.0510
     10 C          62.8571   94.3746   -1.6380 C.ar    1  UNL1       -0.0182
     11 C          64.0629   94.7668   -2.4394 C.ar    1  UNL1        0.0041
     12 C          63.8973   95.2978   -3.8324 C.ar    1  UNL1        0.0413
     13 C          62.5259   95.4366   -4.4240 C.ar    1  UNL1        0.0083
     14 C          61.3201   95.0444   -3.6226 C.ar    1  UNL1        0.0017
     15 C          61.4857   94.5134   -2.2296 C.ar    1  UNL1        0.0122
     16 C          65.1031   95.6900   -4.6339 C.1     1  UNL1       -0.0644
     17 C          66.3088   96.0821   -5.4353 C.1     1  UNL1       -0.0874
     18 C          67.5146   96.4743   -6.2368 C.3     1  UNL1        0.0645
     19 C          68.1537   96.7726   -7.5607 C.3     1  UNL1        0.0140
     20 C          68.9639   96.8554   -6.3011 C.3     1  UNL1        0.0140
     21 O          56.3314   94.0067   -1.8099 O.3     1  UNL1       -0.4574
     22 C          56.1662   94.5307   -3.2056 C.3     1  UNL1        0.2390
     23 C          56.2742   93.5974   -4.3749 C.3     1  UNL1        0.1882
     24 C          56.2366   92.1138   -4.1563 C.3     1  UNL1        0.1755
     25 O          56.3446   91.1805   -5.3256 O.3     1  UNL1       -0.3484
     26 C          56.4901   91.7307   -6.7135 C.3     1  UNL1        0.1742
     27 C          56.5277   93.2142   -6.9320 C.3     1  UNL1        0.1743
     28 O          56.4197   94.1475   -5.7627 O.3     1  UNL1       -0.3472
@<TRIPOS>BOND
     1     1     2    2
     2     2     3   ar
     3     3     4   ar
     4     4    21    1
     5    21    22    1
     6    23    22    1
     7    23    24    1
     8    24    25    1
     9    25    26    1
    10    26    27    1
    11    27    28    1
    12     4     5   ar
    13     5     6   ar
    14     6     7   ar
    15     7     8    1
    16     8     9    1
    17     9    10    1
    18    10    11   ar
    19    11    12   ar
    20    12    16    1
    21    16    17    3
    22    17    18    1
    23    18    19    1
    24    19    20    1
    25    12    13   ar
    26    13    14   ar
    27    14    15   ar
    28     7     2   ar
    29    15    10   ar
    30    28    23    1
    31    15     6    1
    32    20    18    1
