@<TRIPOS>MOLECULE
*****
 26 28 0 0 0
SMALL
GASTEIGER

@<TRIPOS>ATOM
      1 C          61.6885   89.0912    9.6669 C.3     1  UNL1        0.0477
      2 C          62.0793   88.0966   10.7196 C.3     1  UNL1        0.1780
      3 C          61.9623   87.1871    9.5326 C.3     1  UNL1        0.0685
      4 C          62.2296   85.7189    9.6835 C.3     1  UNL1        0.1145
      5 N          62.6139   85.1602   11.0215 N.ar    1  UNL1       -0.2749
      6 C          62.9355   83.7661   11.4722 C.ar    1  UNL1        0.1779
      7 C          63.2512   83.8140   12.9378 C.ar    1  UNL1        0.3976
      8 N          63.1247   85.2378   13.3929 N.ar    1  UNL1       -0.1275
      9 C          62.7308   86.0697   12.2085 C.ar    1  UNL1        0.3057
     10 O          62.4635   87.5379   12.0576 O.3     1  UNL1       -0.4512
     11 N          63.6274   82.6438   13.7975 N.pl3   1  UNL1        0.1030
     12 O          63.7440   82.8115   15.2835 O.2     1  UNL1        0.0432
     13 O          63.8871   81.3058   13.1711 O.co2   1  UNL1       -0.5746
     14 C          62.0605   89.3516   11.5410 C.3     1  UNL1        0.2450
     15 O          62.7117   89.3735   12.8921 O.3     1  UNL1       -0.4717
     16 C          63.8412   90.3220   13.1651 C.ar    1  UNL1        0.1389
     17 C          64.1627   91.4081   12.1819 C.ar    1  UNL1        0.0400
     18 C          65.2922   92.3566   12.4549 C.ar    1  UNL1        0.0403
     19 C          66.1002   92.2189   13.7112 C.ar    1  UNL1        0.1470
     20 C          65.7787   91.1327   14.6944 C.ar    1  UNL1        0.0403
     21 C          64.6492   90.1842   14.4214 C.ar    1  UNL1        0.0400
     22 O          67.2297   93.1674   13.9842 O.3     1  UNL1       -0.4045
     23 C          68.2803   92.8119   14.9940 C.3     1  UNL1        0.5753
     24 F          69.3309   92.4564   16.0040 F       1  UNL1       -0.1328
     25 F          68.9759   91.9629   13.9716 F       1  UNL1       -0.1328
     26 F          67.5847   93.6609   16.0166 F       1  UNL1       -0.1328
@<TRIPOS>UNITY_ATOM_ATTR
11 1
charge 1
13 1
charge -1
@<TRIPOS>BOND
     1     1     2    1
     2     2    14    1
     3    14    15    1
     4    15    16    1
     5    16    17   ar
     6    17    18   ar
     7    18    19   ar
     8    19    22    1
     9    22    23    1
    10    23    24    1
    11    23    25    1
    12    23    26    1
    13    19    20   ar
    14    20    21   ar
    15     2     3    1
    16     3     4    1
    17     4     5    1
    18     5     6   ar
    19     6     7   ar
    20     7    11    1
    21    11    12    2
    22    11    13    1
    23     7     8   ar
    24     8     9   ar
    25     9    10    1
    26    10     2    1
    27    21    16   ar
    28     9     5   ar
@<TRIPOS>MOLECULE
*****
 26 28 0 0 0
SMALL
GASTEIGER

@<TRIPOS>ATOM
      1 C          61.2744   88.8218    9.4398 C.3     1  UNL1        0.0477
      2 C          61.6916   87.8745   10.5253 C.3     1  UNL1        0.1780
      3 C          61.8928   86.9990    9.3241 C.3     1  UNL1        0.0685
      4 C          62.3910   85.5945    9.4947 C.3     1  UNL1        0.1145
      5 N          62.6880   85.0655   10.8666 N.ar    1  UNL1       -0.2749
      6 C          63.1869   83.7332   11.3423 C.ar    1  UNL1        0.1779
      7 C          63.2939   83.7854   12.8376 C.ar    1  UNL1        0.3976
      8 N          62.8613   85.1499   13.2859 N.ar    1  UNL1       -0.1275
      9 C          62.4868   85.9410   12.0678 C.ar    1  UNL1        0.3057
     10 O          61.9886   87.3455   11.8972 O.3     1  UNL1       -0.4512
     11 N          63.7531   82.6691   13.7281 N.pl3   1  UNL1        0.1030
     12 O          63.9977   81.3047   13.1550 O.2     1  UNL1        0.0432
     13 O          63.9675   82.9172   15.1918 O.co2   1  UNL1       -0.5746
     14 C          61.3455   89.0790   11.3496 C.3     1  UNL1        0.2450
     15 O          62.2435   89.5014   12.4744 O.3     1  UNL1       -0.4717
     16 C          63.3454   90.4879   12.2244 C.ar    1  UNL1        0.1389
     17 C          63.4843   91.1317   10.8768 C.ar    1  UNL1        0.0400
     18 C          64.5863   92.1182   10.6269 C.ar    1  UNL1        0.0403
     19 C          65.5494   92.4609   11.7246 C.ar    1  UNL1        0.1470
     20 C          65.4105   91.8171   13.0723 C.ar    1  UNL1        0.0403
     21 C          64.3085   90.8306   13.3222 C.ar    1  UNL1        0.0400
     22 O          66.6514   93.4474   11.4747 O.3     1  UNL1       -0.4045
     23 C          67.2986   93.5225   10.1236 C.3     1  UNL1        0.5753
     24 F          67.9459   93.5978    8.7725 F       1  UNL1       -0.1328
     25 F          67.8960   92.1628   10.3341 F       1  UNL1       -0.1328
     26 F          66.7013   94.8824    9.9131 F       1  UNL1       -0.1328
@<TRIPOS>UNITY_ATOM_ATTR
11 1
charge 1
13 1
charge -1
@<TRIPOS>BOND
     1     1     2    1
     2     2    14    1
     3    14    15    1
     4    15    16    1
     5    16    17   ar
     6    17    18   ar
     7    18    19   ar
     8    19    22    1
     9    22    23    1
    10    23    24    1
    11    23    25    1
    12    23    26    1
    13    19    20   ar
    14    20    21   ar
    15     2     3    1
    16     3     4    1
    17     4     5    1
    18     5     6   ar
    19     6     7   ar
    20     7    11    1
    21    11    12    2
    22    11    13    1
    23     7     8   ar
    24     8     9   ar
    25     9    10    1
    26    10     2    1
    27    21    16   ar
    28     9     5   ar
@<TRIPOS>MOLECULE
*****
 26 28 0 0 0
SMALL
GASTEIGER

@<TRIPOS>ATOM
      1 C          63.1620   89.3353   16.9224 C.3     1  UNL1        0.0477
      2 C          63.4673   88.1778   16.0185 C.3     1  UNL1        0.1780
      3 C          62.8119   87.4535   17.1568 C.3     1  UNL1        0.0685
      4 C          62.6526   85.9629   17.1049 C.3     1  UNL1        0.1145
      5 N          63.1488   85.1966   15.9147 N.ar    1  UNL1       -0.2749
      6 C          63.1311   83.7335   15.5844 C.ar    1  UNL1        0.1779
      7 C          63.7758   83.5535   14.2420 C.ar    1  UNL1        0.3976
      8 N          64.1917   84.9054   13.7427 N.ar    1  UNL1       -0.1275
      9 C          63.8042   85.9209   14.7764 C.ar    1  UNL1        0.3057
     10 O          63.9635   87.4115   14.8283 O.3     1  UNL1       -0.4512
     11 N          63.9703   82.2505   13.5248 N.pl3   1  UNL1        0.1030
     12 O          63.5270   80.9685   14.1651 O.2     1  UNL1        0.0432
     13 O          64.6081   82.2295   12.1674 O.co2   1  UNL1       -0.5746
     14 C          64.0168   89.3040   15.1941 C.3     1  UNL1        0.2450
     15 O          63.2863   89.7606   13.9662 O.3     1  UNL1       -0.4717
     16 C          63.9566   90.6874   12.9957 C.ar    1  UNL1        0.1389
     17 C          63.4509   90.7924   11.5875 C.ar    1  UNL1        0.0400
     18 C          64.1212   91.7192   10.6171 C.ar    1  UNL1        0.0403
     19 C          65.2972   92.5409   11.0549 C.ar    1  UNL1        0.1470
     20 C          65.8029   92.4359   12.4632 C.ar    1  UNL1        0.0403
     21 C          65.1326   91.5091   13.4336 C.ar    1  UNL1        0.0400
     22 O          65.9675   93.4677   10.0845 O.3     1  UNL1       -0.4045
     23 C          67.4383   93.3402    9.8192 C.3     1  UNL1        0.5753
     24 F          68.9092   93.2127    9.5538 F       1  UNL1       -0.1328
     25 F          67.2929   91.8500    9.7288 F       1  UNL1       -0.1328
     26 F          67.5839   94.8304    9.9096 F       1  UNL1       -0.1328
@<TRIPOS>UNITY_ATOM_ATTR
11 1
charge 1
13 1
charge -1
@<TRIPOS>BOND
     1     1     2    1
     2     2    14    1
     3    14    15    1
     4    15    16    1
     5    16    17   ar
     6    17    18   ar
     7    18    19   ar
     8    19    22    1
     9    22    23    1
    10    23    24    1
    11    23    25    1
    12    23    26    1
    13    19    20   ar
    14    20    21   ar
    15     2     3    1
    16     3     4    1
    17     4     5    1
    18     5     6   ar
    19     6     7   ar
    20     7    11    1
    21    11    12    2
    22    11    13    1
    23     7     8   ar
    24     8     9   ar
    25     9    10    1
    26    10     2    1
    27    21    16   ar
    28     9     5   ar
@<TRIPOS>MOLECULE
*****
 26 28 0 0 0
SMALL
GASTEIGER

@<TRIPOS>ATOM
      1 C          62.1768   90.0837   10.0595 C.3     1  UNL1        0.0477
      2 C          63.0639   90.3517   11.2390 C.3     1  UNL1        0.1780
      3 C          63.5223   91.4412   10.3156 C.3     1  UNL1        0.0685
      4 C          64.6015   92.3880   10.7502 C.3     1  UNL1        0.1145
      5 N          65.2223   92.2452   12.1082 N.ar    1  UNL1       -0.2749
      6 C          66.2975   93.0234   12.8071 C.ar    1  UNL1        0.1779
      7 C          66.5036   92.4148   14.1625 C.ar    1  UNL1        0.3976
      8 N          65.5558   91.2605   14.3012 N.ar    1  UNL1       -0.1275
      9 C          64.7639   91.1557   13.0316 C.ar    1  UNL1        0.3057
     10 O          63.6847   90.2089   12.5971 O.3     1  UNL1       -0.4512
     11 N          67.4852   92.8790   15.1975 N.pl3   1  UNL1        0.1030
     12 O          68.9181   93.1130   14.8206 O.2     1  UNL1        0.0432
     13 O          67.0338   93.1092   16.6093 O.co2   1  UNL1       -0.5746
     14 C          62.2974   89.1691   11.7529 C.3     1  UNL1        0.2450
     15 O          62.2047   87.9195   10.9283 O.3     1  UNL1       -0.4717
     16 C          62.5354   86.5907   11.5404 C.ar    1  UNL1        0.1389
     17 C          63.2270   86.5286   12.8699 C.ar    1  UNL1        0.0400
     18 C          63.5577   85.1997   13.4820 C.ar    1  UNL1        0.0403
     19 C          63.1968   83.9329   12.7645 C.ar    1  UNL1        0.1470
     20 C          62.5051   83.9949   11.4350 C.ar    1  UNL1        0.0403
     21 C          62.1744   85.3238   10.8229 C.ar    1  UNL1        0.0400
     22 O          63.5275   82.6040   13.3766 O.3     1  UNL1       -0.4045
     23 C          62.4258   81.6775   13.7985 C.3     1  UNL1        0.5753
     24 F          61.3242   80.7509   14.2203 F       1  UNL1       -0.1328
     25 F          62.1129   82.5771   14.9572 F       1  UNL1       -0.1328
     26 F          62.7388   80.7777   12.6397 F       1  UNL1       -0.1328
@<TRIPOS>UNITY_ATOM_ATTR
11 1
charge 1
13 1
charge -1
@<TRIPOS>BOND
     1     1     2    1
     2     2    14    1
     3    14    15    1
     4    15    16    1
     5    16    17   ar
     6    17    18   ar
     7    18    19   ar
     8    19    22    1
     9    22    23    1
    10    23    24    1
    11    23    25    1
    12    23    26    1
    13    19    20   ar
    14    20    21   ar
    15     2     3    1
    16     3     4    1
    17     4     5    1
    18     5     6   ar
    19     6     7   ar
    20     7    11    1
    21    11    12    2
    22    11    13    1
    23     7     8   ar
    24     8     9   ar
    25     9    10    1
    26    10     2    1
    27    21    16   ar
    28     9     5   ar
@<TRIPOS>MOLECULE
*****
 26 28 0 0 0
SMALL
GASTEIGER

@<TRIPOS>ATOM
      1 C          63.5711   89.7087   15.6476 C.3     1  UNL1        0.0477
      2 C          64.0125   90.4046   14.3943 C.3     1  UNL1        0.1780
      3 C          64.7393   91.2257   15.4177 C.3     1  UNL1        0.0685
      4 C          65.6018   92.3735   14.9835 C.3     1  UNL1        0.1145
      5 N          65.7376   92.7001   13.5259 N.ar    1  UNL1       -0.2749
      6 C          66.5104   93.7636   12.8033 C.ar    1  UNL1        0.1779
      7 C          66.2612   93.5996   11.3333 C.ar    1  UNL1        0.3976
      8 N          65.3345   92.4349   11.1473 N.ar    1  UNL1       -0.1275
      9 C          65.0108   91.8790   12.5024 C.ar    1  UNL1        0.3057
     10 O          64.1483   90.7312   12.9366 O.3     1  UNL1       -0.4512
     11 N          66.8376   94.4510   10.2410 N.pl3   1  UNL1        0.1030
     12 O          66.0597   95.6186    9.7105 O.2     1  UNL1        0.0432
     13 O          68.1919   94.1345    9.6791 O.co2   1  UNL1       -0.5746
     14 C          63.1325   89.3418   13.8061 C.3     1  UNL1        0.2450
     15 O          63.7268   88.2690   12.9423 O.3     1  UNL1       -0.4717
     16 C          63.6728   86.8360   13.3823 C.ar    1  UNL1        0.1389
     17 C          62.9518   85.8212   12.5455 C.ar    1  UNL1        0.0400
     18 C          62.8979   84.3882   12.9855 C.ar    1  UNL1        0.0403
     19 C          63.5650   83.9701   14.2623 C.ar    1  UNL1        0.1470
     20 C          64.2860   84.9849   15.0991 C.ar    1  UNL1        0.0403
     21 C          64.3399   86.4179   14.6591 C.ar    1  UNL1        0.0400
     22 O          63.5110   82.5371   14.7023 O.3     1  UNL1       -0.4045
     23 C          62.8135   81.5171   13.8520 C.3     1  UNL1        0.5753
     24 F          62.1159   80.4971   13.0016 F       1  UNL1       -0.1328
     25 F          64.0957   81.2495   13.1211 F       1  UNL1       -0.1328
     26 F          61.5312   81.7847   14.5828 F       1  UNL1       -0.1328
@<TRIPOS>UNITY_ATOM_ATTR
11 1
charge 1
13 1
charge -1
@<TRIPOS>BOND
     1     1     2    1
     2     2    14    1
     3    14    15    1
     4    15    16    1
     5    16    17   ar
     6    17    18   ar
     7    18    19   ar
     8    19    22    1
     9    22    23    1
    10    23    24    1
    11    23    25    1
    12    23    26    1
    13    19    20   ar
    14    20    21   ar
    15     2     3    1
    16     3     4    1
    17     4     5    1
    18     5     6   ar
    19     6     7   ar
    20     7    11    1
    21    11    12    2
    22    11    13    1
    23     7     8   ar
    24     8     9   ar
    25     9    10    1
    26    10     2    1
    27    21    16   ar
    28     9     5   ar
@<TRIPOS>MOLECULE
*****
 26 28 0 0 0
SMALL
GASTEIGER

@<TRIPOS>ATOM
      1 C          63.6256   81.7555   11.3888 C.3     1  UNL1        0.0477
      2 C          63.7331   82.9429   12.2990 C.3     1  UNL1        0.1780
      3 C          62.7960   82.0864   13.0978 C.3     1  UNL1        0.0685
      4 C          62.2789   82.5716   14.4196 C.3     1  UNL1        0.1145
      5 N          62.6989   83.9133   14.9425 N.ar    1  UNL1       -0.2749
      6 C          62.3559   84.6518   16.2024 C.ar    1  UNL1        0.1779
      7 C          63.0810   85.9647   16.1821 C.ar    1  UNL1        0.3976
      8 N          63.8721   86.0376   14.9097 N.ar    1  UNL1       -0.1275
      9 C          63.6359   84.7698   14.1436 C.ar    1  UNL1        0.3057
     10 O          64.1530   84.2846   12.8219 O.3     1  UNL1       -0.4512
     11 N          63.0250   87.0195   17.2471 N.pl3   1  UNL1        0.1030
     12 O          62.7165   86.6383   18.6647 O.2     1  UNL1        0.0432
     13 O          63.2773   88.4555   16.8945 O.co2   1  UNL1       -0.5746
     14 C          64.6328   83.3870   11.1840 C.3     1  UNL1        0.2450
     15 O          64.0677   83.6317    9.8163 O.3     1  UNL1       -0.4717
     16 C          62.9748   84.6413    9.6258 C.ar    1  UNL1        0.1389
     17 C          62.2542   85.2002   10.8167 C.ar    1  UNL1        0.0400
     18 C          61.1613   86.2098   10.6262 C.ar    1  UNL1        0.0403
     19 C          60.7890   86.6604    9.2448 C.ar    1  UNL1        0.1470
     20 C          61.5096   86.1015    8.0539 C.ar    1  UNL1        0.0403
     21 C          62.6025   85.0919    8.2443 C.ar    1  UNL1        0.0400
     22 O          59.6961   87.6700    9.0543 O.3     1  UNL1       -0.4045
     23 C          59.7279   88.5965    7.8751 C.3     1  UNL1        0.5753
     24 F          59.7597   89.5229    6.6957 F       1  UNL1       -0.1328
     25 F          60.5924   89.5490    8.6466 F       1  UNL1       -0.1328
     26 F          58.8634   87.6439    7.1034 F       1  UNL1       -0.1328
@<TRIPOS>UNITY_ATOM_ATTR
11 1
charge 1
13 1
charge -1
@<TRIPOS>BOND
     1     1     2    1
     2     2    14    1
     3    14    15    1
     4    15    16    1
     5    16    17   ar
     6    17    18   ar
     7    18    19   ar
     8    19    22    1
     9    22    23    1
    10    23    24    1
    11    23    25    1
    12    23    26    1
    13    19    20   ar
    14    20    21   ar
    15     2     3    1
    16     3     4    1
    17     4     5    1
    18     5     6   ar
    19     6     7   ar
    20     7    11    1
    21    11    12    2
    22    11    13    1
    23     7     8   ar
    24     8     9   ar
    25     9    10    1
    26    10     2    1
    27    21    16   ar
    28     9     5   ar
@<TRIPOS>MOLECULE
*****
 26 28 0 0 0
SMALL
GASTEIGER

@<TRIPOS>ATOM
      1 C          64.6310   86.8220   14.9424 C.3     1  UNL1        0.0477
      2 C          63.8533   87.2504   13.7335 C.3     1  UNL1        0.1780
      3 C          63.7037   85.7619   13.6253 C.3     1  UNL1        0.0685
      4 C          62.9221   85.1671   12.4916 C.3     1  UNL1        0.1145
      5 N          62.2901   86.0609   11.4661 N.ar    1  UNL1       -0.2749
      6 C          61.4677   85.7651   10.2470 C.ar    1  UNL1        0.1779
      7 C          61.1090   87.0709    9.6018 C.ar    1  UNL1        0.3976
      8 N          61.7097   88.1737   10.4221 N.ar    1  UNL1       -0.1275
      9 C          62.4397   87.5495   11.5743 C.ar    1  UNL1        0.3057
     10 O          63.2213   88.1442   12.7080 O.3     1  UNL1       -0.4512
     11 N          60.2928   87.2436    8.3551 N.pl3   1  UNL1        0.1030
     12 O          59.8888   88.6170    7.9075 O.2     1  UNL1        0.0432
     13 O          59.8807   86.0428    7.5561 O.co2   1  UNL1       -0.5746
     14 C          64.2730   88.5902   14.2616 C.3     1  UNL1        0.2450
     15 O          63.6381   89.8396   13.7269 O.3     1  UNL1       -0.4717
     16 C          64.4794   90.8726   13.0377 C.ar    1  UNL1        0.1389
     17 C          64.1180   91.3350   11.6573 C.ar    1  UNL1        0.0400
     18 C          64.9593   92.3680   10.9681 C.ar    1  UNL1        0.0403
     19 C          66.1620   92.9387   11.6593 C.ar    1  UNL1        0.1470
     20 C          66.5234   92.4764   13.0397 C.ar    1  UNL1        0.0403
     21 C          65.6821   91.4434   13.7290 C.ar    1  UNL1        0.0400
     22 O          67.0033   93.9718   10.9701 O.3     1  UNL1       -0.4045
     23 C          67.5086   93.7220    9.5801 C.3     1  UNL1        0.5753
     24 F          68.0139   93.4723    8.1899 F       1  UNL1       -0.1328
     25 F          68.3001   92.5494   10.0784 F       1  UNL1       -0.1328
     26 F          66.7171   94.8947    9.0816 F       1  UNL1       -0.1328
@<TRIPOS>UNITY_ATOM_ATTR
11 1
charge 1
13 1
charge -1
@<TRIPOS>BOND
     1     1     2    1
     2     2    14    1
     3    14    15    1
     4    15    16    1
     5    16    17   ar
     6    17    18   ar
     7    18    19   ar
     8    19    22    1
     9    22    23    1
    10    23    24    1
    11    23    25    1
    12    23    26    1
    13    19    20   ar
    14    20    21   ar
    15     2     3    1
    16     3     4    1
    17     4     5    1
    18     5     6   ar
    19     6     7   ar
    20     7    11    1
    21    11    12    2
    22    11    13    1
    23     7     8   ar
    24     8     9   ar
    25     9    10    1
    26    10     2    1
    27    21    16   ar
    28     9     5   ar
@<TRIPOS>MOLECULE
*****
 26 28 0 0 0
SMALL
GASTEIGER

@<TRIPOS>ATOM
      1 C          63.7668   89.0748   13.3742 C.3     1  UNL1        0.0477
      2 C          63.4858   87.6370   13.0519 C.3     1  UNL1        0.1780
      3 C          64.2923   87.4701   14.3056 C.3     1  UNL1        0.0685
      4 C          64.5717   86.0969   14.8404 C.3     1  UNL1        0.1145
      5 N          64.0445   84.8905   14.1216 N.ar    1  UNL1       -0.2749
      6 C          64.1576   83.4224   14.4080 C.ar    1  UNL1        0.1779
      7 C          63.4210   82.6820   13.3314 C.ar    1  UNL1        0.3976
      8 N          62.8526   83.6924   12.3796 N.ar    1  UNL1       -0.1275
      9 C          63.2379   85.0573   12.8680 C.ar    1  UNL1        0.3057
     10 O          62.9586   86.4306   12.3331 O.3     1  UNL1       -0.4512
     11 N          63.2779   81.1925   13.2252 N.pl3   1  UNL1        0.1030
     12 O          62.8140   80.5734   11.9401 O.2     1  UNL1        0.0432
     13 O          63.5986   80.3223   14.4041 O.co2   1  UNL1       -0.5746
     14 C          62.7769   88.3032   11.9102 C.3     1  UNL1        0.2450
     15 O          61.3357   87.9898   11.6368 O.3     1  UNL1       -0.4717
     16 C          60.7521   88.2646   10.2826 C.ar    1  UNL1        0.1389
     17 C          60.4528   87.1284    9.3502 C.ar    1  UNL1        0.0400
     18 C          59.8693   87.4032    7.9960 C.ar    1  UNL1        0.0403
     19 C          59.5851   88.8144    7.5742 C.ar    1  UNL1        0.1470
     20 C          59.8844   89.9506    8.5065 C.ar    1  UNL1        0.0403
     21 C          60.4679   89.6758    9.8607 C.ar    1  UNL1        0.0400
     22 O          59.0015   89.0893    6.2199 O.3     1  UNL1       -0.4045
     23 C          59.0305   90.4801    5.6589 C.3     1  UNL1        0.5753
     24 F          59.0594   91.8709    5.0978 F       1  UNL1       -0.1328
     25 F          60.5143   90.3722    5.4679 F       1  UNL1       -0.1328
     26 F          57.5465   90.5880    5.8498 F       1  UNL1       -0.1328
@<TRIPOS>UNITY_ATOM_ATTR
11 1
charge 1
13 1
charge -1
@<TRIPOS>BOND
     1     1     2    1
     2     2    14    1
     3    14    15    1
     4    15    16    1
     5    16    17   ar
     6    17    18   ar
     7    18    19   ar
     8    19    22    1
     9    22    23    1
    10    23    24    1
    11    23    25    1
    12    23    26    1
    13    19    20   ar
    14    20    21   ar
    15     2     3    1
    16     3     4    1
    17     4     5    1
    18     5     6   ar
    19     6     7   ar
    20     7    11    1
    21    11    12    2
    22    11    13    1
    23     7     8   ar
    24     8     9   ar
    25     9    10    1
    26    10     2    1
    27    21    16   ar
    28     9     5   ar
@<TRIPOS>MOLECULE
*****
 26 28 0 0 0
SMALL
GASTEIGER

@<TRIPOS>ATOM
      1 C          64.6732   90.1979   14.6748 C.3     1  UNL1        0.0477
      2 C          63.9587   89.3769   13.6426 C.3     1  UNL1        0.1780
      3 C          63.5820   90.7550   13.1855 C.3     1  UNL1        0.0685
      4 C          62.7079   90.9324   11.9796 C.3     1  UNL1        0.1145
      5 N          62.2105   89.7318   11.2306 N.ar    1  UNL1       -0.2749
      6 C          61.3409   89.5958   10.0159 C.ar    1  UNL1        0.1779
      7 C          61.1802   88.1337    9.7222 C.ar    1  UNL1        0.3976
      8 N          61.9504   87.3660   10.7554 N.ar    1  UNL1       -0.1275
      9 C          62.5871   88.3536   11.6876 C.ar    1  UNL1        0.3057
     10 O          63.4612   88.1762   12.8936 O.3     1  UNL1       -0.4512
     11 N          60.3883   87.5429    8.5935 N.pl3   1  UNL1        0.1030
     12 O          60.3014   86.0536    8.4373 O.2     1  UNL1        0.0432
     13 O          59.6833   88.4414    7.6211 O.co2   1  UNL1       -0.5746
     14 C          64.5835   88.2839   14.4581 C.3     1  UNL1        0.2450
     15 O          63.7298   87.4319   15.3499 O.3     1  UNL1       -0.4717
     16 C          63.6969   85.9445   15.1591 C.ar    1  UNL1        0.1389
     17 C          62.5171   85.1526   15.6394 C.ar    1  UNL1        0.0400
     18 C          62.4842   83.6652   15.4486 C.ar    1  UNL1        0.0403
     19 C          63.6313   82.9696   14.7774 C.ar    1  UNL1        0.1470
     20 C          64.8112   83.7615   14.2971 C.ar    1  UNL1        0.0403
     21 C          64.8441   85.2489   14.4879 C.ar    1  UNL1        0.0400
     22 O          63.5985   81.4822   14.5866 O.3     1  UNL1       -0.4045
     23 C          63.0675   80.9013   13.3097 C.3     1  UNL1        0.5753
     24 F          62.5366   80.3204   12.0326 F       1  UNL1       -0.1328
     25 F          61.7432   80.6582   13.9708 F       1  UNL1       -0.1328
     26 F          64.3918   81.1443   12.6484 F       1  UNL1       -0.1328
@<TRIPOS>UNITY_ATOM_ATTR
11 1
charge 1
13 1
charge -1
@<TRIPOS>BOND
     1     1     2    1
     2     2    14    1
     3    14    15    1
     4    15    16    1
     5    16    17   ar
     6    17    18   ar
     7    18    19   ar
     8    19    22    1
     9    22    23    1
    10    23    24    1
    11    23    25    1
    12    23    26    1
    13    19    20   ar
    14    20    21   ar
    15     2     3    1
    16     3     4    1
    17     4     5    1
    18     5     6   ar
    19     6     7   ar
    20     7    11    1
    21    11    12    2
    22    11    13    1
    23     7     8   ar
    24     8     9   ar
    25     9    10    1
    26    10     2    1
    27    21    16   ar
    28     9     5   ar
