@<TRIPOS>MOLECULE
*****
 40 44 0 0 0
SMALL
GASTEIGER

@<TRIPOS>ATOM
      1 C          65.7282   92.0588   11.5284 C.ar    1  UNL1        0.0782
      2 N          64.7436   91.7163   10.4499 N.ar    1  UNL1       -0.2480
      3 C          63.4493   91.0446   10.8017 C.ar    1  UNL1        0.0812
      4 C          62.4647   90.7021    9.7232 C.ar    1  UNL1        0.0214
      5 C          61.1705   90.0305   10.0750 C.ar    1  UNL1        0.0312
      6 C          60.8609   89.7013   11.5053 C.ar    1  UNL1        0.1402
      7 F          59.5665   89.0296   11.8570 F       1  UNL1       -0.2042
      8 C          61.8455   90.0438   12.5838 C.ar    1  UNL1        0.0313
      9 C          63.1397   90.7154   12.2320 C.ar    1  UNL1        0.0243
     10 C          64.1244   91.0579   13.3105 C.ar    1  UNL1        0.0577
     11 C          65.4186   91.7296   12.9587 C.ar    1  UNL1        0.0372
     12 C          63.8147   90.7288   14.7408 C.2     1  UNL1        0.2493
     13 O          63.5157   91.8287   15.7158 O.2     1  UNL1       -0.2699
     14 N          63.8041   89.2995   15.1961 N.am    1  UNL1       -0.2710
     15 C          64.0451   87.9742   14.5362 C.3     1  UNL1        0.1247
     16 C          63.7891   87.2784   15.8401 C.3     1  UNL1        0.1500
     17 O          63.7786   85.8492   16.2955 O.3     1  UNL1       -0.3810
     18 C          63.5482   88.6036   16.5001 C.3     1  UNL1        0.1247
     19 H          63.9905   85.2698   15.5469 H       1  UNL1        0.2105
     20 C          66.4033   92.0721   14.0373 C.ar    1  UNL1        0.0826
     21 C          67.2503   90.9958   14.6488 C.ar    1  UNL1        0.0192
     22 C          68.2350   91.3382   15.7273 C.ar    1  UNL1        0.0031
     23 C          68.3726   92.7570   16.1942 C.ar    1  UNL1        0.0207
     24 C          67.5255   93.8333   15.5827 C.ar    1  UNL1        0.0988
     25 N          66.5409   93.4909   14.5042 N.ar    1  UNL1       -0.2438
     26 C          68.1964   91.9099   10.7307 C.3     1  UNL1        0.0278
     27 C          67.0225   92.7305   11.1767 C.3     1  UNL1        0.1110
     28 N          67.1430   94.2226   11.2709 N.pl3   1  UNL1       -0.3141
     29 H          67.7757   94.6262   11.9081 H       1  UNL1        0.1485
     30 C          66.2994   95.0999   10.3942 C.ar    1  UNL1        0.1429
     31 N          65.2458   95.9773   11.0028 N.ar    1  UNL1       -0.2084
     32 C          64.4022   96.8547   10.1262 C.ar    1  UNL1        0.2012
     33 N          64.6120   96.8546    8.6409 N.ar    1  UNL1       -0.2087
     34 C          65.6655   95.9773    8.0323 C.ar    1  UNL1        0.1396
     35 N          65.8753   95.9773    6.5471 N.pl3   1  UNL1       -0.3420
     36 C          66.5092   95.0999    8.9090 C.ar    1  UNL1        0.1308
     37 H          65.3216   96.5531    5.9717 H       1  UNL1        0.1437
     38 H          66.5668   95.4014    6.1476 H       1  UNL1        0.1437
     39 C          67.5626   94.2226    8.3004 C.1     1  UNL1        0.1061
     40 N          68.6161   93.3452    7.6917 N.1     1  UNL1       -0.1906
@<TRIPOS>BOND
     1    26    27    1
     2    27    28    1
     3    28    30    1
     4    30    31   ar
     5    31    32   ar
     6    32    33   ar
     7    33    34   ar
     8    34    35    1
     9    34    36   ar
    10    36    39    1
    11    39    40    3
    12    27     1    1
    13     1     2   ar
    14     2     3   ar
    15     3     4   ar
    16     4     5   ar
    17     5     6   ar
    18     6     7    1
    19     6     8   ar
    20     8     9   ar
    21     9    10   ar
    22    10    12    1
    23    12    13    2
    24    12    14   am
    25    14    15    1
    26    15    16    1
    27    16    17    1
    28    16    18    1
    29    10    11   ar
    30    11    20    1
    31    20    21   ar
    32    21    22   ar
    33    22    23   ar
    34    23    24   ar
    35    24    25   ar
    36    36    30   ar
    37    11     1   ar
    38    25    20   ar
    39     9     3   ar
    40    18    14    1
    41    28    29    1
    42    35    37    1
    43    35    38    1
    44    17    19    1
@<TRIPOS>MOLECULE
*****
 40 44 0 0 0
SMALL
GASTEIGER

@<TRIPOS>ATOM
      1 C          63.5716   87.4936   13.3142 C.ar    1  UNL1        0.0782
      2 N          64.1926   86.2296   13.8306 N.ar    1  UNL1       -0.2480
      3 C          63.8790   84.9175   13.1746 C.ar    1  UNL1        0.0812
      4 C          64.5000   83.6535   13.6909 C.ar    1  UNL1        0.0214
      5 C          64.1864   82.3415   13.0349 C.ar    1  UNL1        0.0312
      6 C          63.2519   82.2935   11.8626 C.ar    1  UNL1        0.1402
      7 F          62.9383   80.9815   11.2066 F       1  UNL1       -0.2042
      8 C          62.6309   83.5575   11.3463 C.ar    1  UNL1        0.0313
      9 C          62.9445   84.8695   12.0022 C.ar    1  UNL1        0.0243
     10 C          62.3235   86.1336   11.4859 C.ar    1  UNL1        0.0577
     11 C          62.6371   87.4456   12.1419 C.ar    1  UNL1        0.0372
     12 C          61.3890   86.0856   10.3136 C.2     1  UNL1        0.2493
     13 O          59.9602   86.5127   10.4754 O.2     1  UNL1       -0.2699
     14 N          61.8832   85.6105    8.9794 N.am    1  UNL1       -0.2710
     15 C          63.1975   85.1198    8.4485 C.3     1  UNL1        0.1247
     16 C          62.5821   84.9386    7.0925 C.3     1  UNL1        0.1500
     17 O          63.0763   84.4636    5.7584 O.3     1  UNL1       -0.3810
     18 C          61.2679   85.4294    7.6235 C.3     1  UNL1        0.1247
     19 H          64.0148   84.2277    5.8265 H       1  UNL1        0.2105
     20 C          62.0161   88.7097   11.6255 C.ar    1  UNL1        0.0826
     21 C          62.6521   89.4457   10.4837 C.ar    1  UNL1        0.0192
     22 C          62.0312   90.7097    9.9673 C.ar    1  UNL1        0.0031
     23 C          60.7743   91.2377   10.5929 C.ar    1  UNL1        0.0207
     24 C          60.1383   90.5017   11.7347 C.ar    1  UNL1        0.0988
     25 N          60.7592   89.2377   12.2511 N.ar    1  UNL1       -0.2438
     26 C          63.7814   88.9428   15.4603 C.3     1  UNL1        0.0278
     27 C          63.8851   88.8056   13.9702 C.3     1  UNL1        0.1110
     28 N          64.3024   89.9804   13.1361 N.pl3   1  UNL1       -0.3141
     29 H          64.0772   90.0087   12.1781 H       1  UNL1        0.1485
     30 C          65.0627   91.1120   13.7616 C.ar    1  UNL1        0.1429
     31 N          65.3961   91.0740   15.2236 N.ar    1  UNL1       -0.2084
     32 C          66.1565   92.2057   15.8491 C.ar    1  UNL1        0.2012
     33 N          66.5834   93.3753   15.0126 N.ar    1  UNL1       -0.2087
     34 C          66.2501   93.4133   13.5507 C.ar    1  UNL1        0.1396
     35 N          66.6771   94.5829   12.7142 N.pl3   1  UNL1       -0.3420
     36 C          65.4897   92.2816   12.9251 C.ar    1  UNL1        0.1308
     37 H          67.1761   95.3256   13.1247 H       1  UNL1        0.1437
     38 H          66.4583   94.6078   11.7546 H       1  UNL1        0.1437
     39 C          65.1564   92.3196   11.4631 C.1     1  UNL1        0.1061
     40 N          64.8231   92.3576   10.0012 N.1     1  UNL1       -0.1906
@<TRIPOS>BOND
     1    26    27    1
     2    27    28    1
     3    28    30    1
     4    30    31   ar
     5    31    32   ar
     6    32    33   ar
     7    33    34   ar
     8    34    35    1
     9    34    36   ar
    10    36    39    1
    11    39    40    3
    12    27     1    1
    13     1     2   ar
    14     2     3   ar
    15     3     4   ar
    16     4     5   ar
    17     5     6   ar
    18     6     7    1
    19     6     8   ar
    20     8     9   ar
    21     9    10   ar
    22    10    12    1
    23    12    13    2
    24    12    14   am
    25    14    15    1
    26    15    16    1
    27    16    17    1
    28    16    18    1
    29    10    11   ar
    30    11    20    1
    31    20    21   ar
    32    21    22   ar
    33    22    23   ar
    34    23    24   ar
    35    24    25   ar
    36    36    30   ar
    37    11     1   ar
    38    25    20   ar
    39     9     3   ar
    40    18    14    1
    41    28    29    1
    42    35    37    1
    43    35    38    1
    44    17    19    1
@<TRIPOS>MOLECULE
*****
 40 44 0 0 0
SMALL
GASTEIGER

@<TRIPOS>ATOM
      1 C          58.8106   93.3851   -1.7861 C.ar    1  UNL1        0.0782
      2 N          59.0665   92.7793   -0.4380 N.ar    1  UNL1       -0.2480
      3 C          60.4184   92.9103    0.1988 C.ar    1  UNL1        0.0812
      4 C          60.6743   92.3044    1.5469 C.ar    1  UNL1        0.0214
      5 C          62.0261   92.4354    2.1836 C.ar    1  UNL1        0.0312
      6 C          63.1220   93.1723    1.4722 C.ar    1  UNL1        0.1402
      7 F          64.4739   93.3033    2.1090 F       1  UNL1       -0.2042
      8 C          62.8661   93.7781    0.1241 C.ar    1  UNL1        0.0313
      9 C          61.5143   93.6471   -0.5126 C.ar    1  UNL1        0.0243
     10 C          61.2583   94.2530   -1.8608 C.ar    1  UNL1        0.0577
     11 C          59.9065   94.1220   -2.4975 C.ar    1  UNL1        0.0372
     12 C          62.3542   94.9898   -2.5722 C.2     1  UNL1        0.2493
     13 O          62.4662   96.4796   -2.4380 O.2     1  UNL1       -0.2699
     14 N          63.3381   94.2369   -3.4178 N.am    1  UNL1       -0.2710
     15 C          63.5407   92.7955   -3.7802 C.3     1  UNL1        0.1247
     16 C          64.7295   93.1721   -4.6137 C.3     1  UNL1        0.1500
     17 O          65.7134   92.4192   -5.4593 O.3     1  UNL1       -0.3810
     18 C          64.5269   94.6135   -4.2514 C.3     1  UNL1        0.1247
     19 H          65.5003   91.4732   -5.4385 H       1  UNL1        0.2105
     20 C          59.6505   94.7278   -3.8456 C.ar    1  UNL1        0.0826
     21 C          59.1133   96.1244   -3.9505 C.ar    1  UNL1        0.0192
     22 C          58.8573   96.7302   -5.2986 C.ar    1  UNL1        0.0031
     23 C          59.1386   95.9395   -6.5418 C.ar    1  UNL1        0.0207
     24 C          59.6758   94.5430   -6.4369 C.ar    1  UNL1        0.0988
     25 N          59.9318   93.9371   -5.0889 N.ar    1  UNL1       -0.2438
     26 C          56.2262   93.6117   -1.6464 C.3     1  UNL1        0.0278
     27 C          57.4588   93.2541   -2.4228 C.3     1  UNL1        0.1110
     28 N          57.3395   92.7655   -3.8360 N.pl3   1  UNL1       -0.3141
     29 H          57.8999   93.1606   -4.5424 H       1  UNL1        0.1485
     30 C          56.3665   91.6748   -4.1728 C.ar    1  UNL1        0.1429
     31 N          56.0456   90.6166   -3.1592 N.ar    1  UNL1       -0.2084
     32 C          55.0725   89.5259   -3.4960 C.ar    1  UNL1        0.2012
     33 N          54.4203   89.4933   -4.8464 N.ar    1  UNL1       -0.2087
     34 C          54.7412   90.5515   -5.8600 C.ar    1  UNL1        0.1396
     35 N          54.0889   90.5189   -7.2104 N.pl3   1  UNL1       -0.3420
     36 C          55.7143   91.6422   -5.5232 C.ar    1  UNL1        0.1308
     37 H          53.4503   89.8030   -7.4314 H       1  UNL1        0.1437
     38 H          54.2995   91.2134   -7.8756 H       1  UNL1        0.1437
     39 C          56.0351   92.7004   -6.5368 C.1     1  UNL1        0.1061
     40 N          56.3560   93.7585   -7.5503 N.1     1  UNL1       -0.1906
@<TRIPOS>BOND
     1    26    27    1
     2    27    28    1
     3    28    30    1
     4    30    31   ar
     5    31    32   ar
     6    32    33   ar
     7    33    34   ar
     8    34    35    1
     9    34    36   ar
    10    36    39    1
    11    39    40    3
    12    27     1    1
    13     1     2   ar
    14     2     3   ar
    15     3     4   ar
    16     4     5   ar
    17     5     6   ar
    18     6     7    1
    19     6     8   ar
    20     8     9   ar
    21     9    10   ar
    22    10    12    1
    23    12    13    2
    24    12    14   am
    25    14    15    1
    26    15    16    1
    27    16    17    1
    28    16    18    1
    29    10    11   ar
    30    11    20    1
    31    20    21   ar
    32    21    22   ar
    33    22    23   ar
    34    23    24   ar
    35    24    25   ar
    36    36    30   ar
    37    11     1   ar
    38    25    20   ar
    39     9     3   ar
    40    18    14    1
    41    28    29    1
    42    35    37    1
    43    35    38    1
    44    17    19    1
@<TRIPOS>MOLECULE
*****
 40 44 0 0 0
SMALL
GASTEIGER

@<TRIPOS>ATOM
      1 C          63.1555   90.4649   11.8550 C.ar    1  UNL1        0.0782
      2 N          63.3628   91.4315   10.7269 N.ar    1  UNL1       -0.2480
      3 C          64.3458   92.5551   10.8730 C.ar    1  UNL1        0.0812
      4 C          64.5530   93.5218    9.7449 C.ar    1  UNL1        0.0214
      5 C          65.5360   94.6453    9.8911 C.ar    1  UNL1        0.0312
      6 C          66.3117   94.8022   11.1653 C.ar    1  UNL1        0.1402
      7 F          67.2947   95.9258   11.3114 F       1  UNL1       -0.2042
      8 C          66.1044   93.8356   12.2934 C.ar    1  UNL1        0.0313
      9 C          65.1215   92.7120   12.1472 C.ar    1  UNL1        0.0243
     10 C          64.9142   91.7453   13.2754 C.ar    1  UNL1        0.0577
     11 C          63.9313   90.6218   13.1292 C.ar    1  UNL1        0.0372
     12 C          65.6899   91.9022   14.5496 C.2     1  UNL1        0.2493
     13 O          64.9678   91.9890   15.8614 O.2     1  UNL1       -0.2699
     14 N          67.1879   91.9723   14.5119 N.am    1  UNL1       -0.2710
     15 C          68.2252   91.9224   13.4296 C.3     1  UNL1        0.1247
     16 C          69.3062   92.0714   14.4588 C.3     1  UNL1        0.1500
     17 O          70.8041   92.1415   14.4212 O.3     1  UNL1       -0.3810
     18 C          68.2689   92.1214   15.5411 C.3     1  UNL1        0.1247
     19 H          71.1081   92.0709   13.5028 H       1  UNL1        0.2105
     20 C          63.7240   89.6551   14.2573 C.ar    1  UNL1        0.0826
     21 C          64.3714   88.3027   14.2146 C.ar    1  UNL1        0.0192
     22 C          64.1642   87.3360   15.3426 C.ar    1  UNL1        0.0031
     23 C          63.3095   87.7217   16.5134 C.ar    1  UNL1        0.0207
     24 C          62.6620   89.0741   16.5561 C.ar    1  UNL1        0.0988
     25 N          62.8693   90.0408   15.4281 N.ar    1  UNL1       -0.2438
     26 C          60.9220   89.3264   12.5370 C.3     1  UNL1        0.0278
     27 C          62.1725   89.3413   11.7089 C.3     1  UNL1        0.1110
     28 N          62.4401   88.2326   10.7346 N.pl3   1  UNL1       -0.3141
     29 H          63.2407   87.6690   10.8380 H       1  UNL1        0.1485
     30 C          61.4880   87.9826    9.6029 C.ar    1  UNL1        0.1429
     31 N          60.5632   89.0719    9.1463 N.ar    1  UNL1       -0.2084
     32 C          59.6110   88.8219    8.0146 C.ar    1  UNL1        0.2012
     33 N          59.5836   87.4828    7.3394 N.ar    1  UNL1       -0.2087
     34 C          60.5083   86.3936    7.7959 C.ar    1  UNL1        0.1396
     35 N          60.4809   85.0544    7.1207 N.pl3   1  UNL1       -0.3420
     36 C          61.4605   86.6435    8.9277 C.ar    1  UNL1        0.1308
     37 H          59.8559   84.8904    6.3779 H       1  UNL1        0.1437
     38 H          61.0878   84.3395    7.4203 H       1  UNL1        0.1437
     39 C          62.3853   85.5543    9.3842 C.1     1  UNL1        0.1061
     40 N          63.3100   84.4651    9.8407 N.1     1  UNL1       -0.1906
@<TRIPOS>BOND
     1    26    27    1
     2    27    28    1
     3    28    30    1
     4    30    31   ar
     5    31    32   ar
     6    32    33   ar
     7    33    34   ar
     8    34    35    1
     9    34    36   ar
    10    36    39    1
    11    39    40    3
    12    27     1    1
    13     1     2   ar
    14     2     3   ar
    15     3     4   ar
    16     4     5   ar
    17     5     6   ar
    18     6     7    1
    19     6     8   ar
    20     8     9   ar
    21     9    10   ar
    22    10    12    1
    23    12    13    2
    24    12    14   am
    25    14    15    1
    26    15    16    1
    27    16    17    1
    28    16    18    1
    29    10    11   ar
    30    11    20    1
    31    20    21   ar
    32    21    22   ar
    33    22    23   ar
    34    23    24   ar
    35    24    25   ar
    36    36    30   ar
    37    11     1   ar
    38    25    20   ar
    39     9     3   ar
    40    18    14    1
    41    28    29    1
    42    35    37    1
    43    35    38    1
    44    17    19    1
@<TRIPOS>MOLECULE
*****
 40 44 0 0 0
SMALL
GASTEIGER

@<TRIPOS>ATOM
      1 C          63.1125   89.9391   12.0490 C.ar    1  UNL1        0.0782
      2 N          63.3571   90.8382   10.8736 N.ar    1  UNL1       -0.2480
      3 C          64.2756   92.0165   11.0089 C.ar    1  UNL1        0.0812
      4 C          64.5202   92.9155    9.8334 C.ar    1  UNL1        0.0214
      5 C          65.4385   94.0938    9.9687 C.ar    1  UNL1        0.0312
      6 C          66.1123   94.3729   11.2795 C.ar    1  UNL1        0.1402
      7 F          67.0307   95.5512   11.4148 F       1  UNL1       -0.2042
      8 C          65.8677   93.4738   12.4550 C.ar    1  UNL1        0.0313
      9 C          64.9493   92.2956   12.3196 C.ar    1  UNL1        0.0243
     10 C          64.7047   91.3964   13.4951 C.ar    1  UNL1        0.0577
     11 C          63.7863   90.2182   13.3598 C.ar    1  UNL1        0.0372
     12 C          65.3784   91.6755   14.8059 C.2     1  UNL1        0.2493
     13 O          64.5610   91.8038   16.0570 O.2     1  UNL1       -0.2699
     14 N          66.8697   91.8264   14.8655 N.am    1  UNL1       -0.2710
     15 C          67.9828   91.7667   13.8618 C.3     1  UNL1        0.1247
     16 C          68.9786   92.0397   14.9499 C.3     1  UNL1        0.1500
     17 O          70.4697   92.1905   15.0096 O.3     1  UNL1       -0.3810
     18 C          67.8654   92.0993   15.9536 C.3     1  UNL1        0.1247
     19 H          70.8418   92.0796   14.1207 H       1  UNL1        0.2105
     20 C          63.5416   89.3190   14.5353 C.ar    1  UNL1        0.0826
     21 C          64.3303   88.0522   14.6875 C.ar    1  UNL1        0.0192
     22 C          64.0857   87.1531   15.8629 C.ar    1  UNL1        0.0031
     23 C          63.0524   87.5207   16.8861 C.ar    1  UNL1        0.0207
     24 C          62.2638   88.7875   16.7340 C.ar    1  UNL1        0.0988
     25 N          62.5084   89.6867   15.5586 N.ar    1  UNL1       -0.2438
     26 C          60.7631   88.9673   11.5144 C.3     1  UNL1        0.0278
     27 C          62.1941   88.7608   11.9138 C.3     1  UNL1        0.1110
     28 N          62.7068   87.3761   12.1779 N.pl3   1  UNL1       -0.3141
     29 H          62.9750   87.1159   13.0887 H       1  UNL1        0.1485
     30 C          62.8106   86.3879   11.0542 C.ar    1  UNL1        0.1429
     31 N          62.4994   86.8134    9.6499 N.ar    1  UNL1       -0.2084
     32 C          62.6033   85.8252    8.5263 C.ar    1  UNL1        0.2012
     33 N          63.0184   84.4114    8.8069 N.ar    1  UNL1       -0.2087
     34 C          63.3296   83.9858   10.2112 C.ar    1  UNL1        0.1396
     35 N          63.7448   82.5719   10.4918 N.pl3   1  UNL1       -0.3420
     36 C          63.2258   84.9740   11.3349 C.ar    1  UNL1        0.1308
     37 H          63.8129   81.9233    9.7543 H       1  UNL1        0.1437
     38 H          63.9490   82.2926   11.4135 H       1  UNL1        0.1437
     39 C          63.5370   84.5484   12.7391 C.1     1  UNL1        0.1061
     40 N          63.8482   84.1228   14.1434 N.1     1  UNL1       -0.1906
@<TRIPOS>BOND
     1    26    27    1
     2    27    28    1
     3    28    30    1
     4    30    31   ar
     5    31    32   ar
     6    32    33   ar
     7    33    34   ar
     8    34    35    1
     9    34    36   ar
    10    36    39    1
    11    39    40    3
    12    27     1    1
    13     1     2   ar
    14     2     3   ar
    15     3     4   ar
    16     4     5   ar
    17     5     6   ar
    18     6     7    1
    19     6     8   ar
    20     8     9   ar
    21     9    10   ar
    22    10    12    1
    23    12    13    2
    24    12    14   am
    25    14    15    1
    26    15    16    1
    27    16    17    1
    28    16    18    1
    29    10    11   ar
    30    11    20    1
    31    20    21   ar
    32    21    22   ar
    33    22    23   ar
    34    23    24   ar
    35    24    25   ar
    36    36    30   ar
    37    11     1   ar
    38    25    20   ar
    39     9     3   ar
    40    18    14    1
    41    28    29    1
    42    35    37    1
    43    35    38    1
    44    17    19    1
@<TRIPOS>MOLECULE
*****
 40 44 0 0 0
SMALL
GASTEIGER

@<TRIPOS>ATOM
      1 C          59.6430   93.4023   -1.5720 C.ar    1  UNL1        0.0782
      2 N          60.1272   92.7842   -0.2939 N.ar    1  UNL1       -0.2480
      3 C          61.5606   92.9416    0.1194 C.ar    1  UNL1        0.0812
      4 C          62.0448   92.3235    1.3975 C.ar    1  UNL1        0.0214
      5 C          63.4781   92.4809    1.8107 C.ar    1  UNL1        0.0312
      6 C          64.4272   93.2563    0.9458 C.ar    1  UNL1        0.1402
      7 F          65.8606   93.4136    1.3591 F       1  UNL1       -0.2042
      8 C          63.9430   93.8743   -0.3322 C.ar    1  UNL1        0.0313
      9 C          62.5097   93.7170   -0.7455 C.ar    1  UNL1        0.0243
     10 C          62.0254   94.3350   -2.0236 C.ar    1  UNL1        0.0577
     11 C          60.5921   94.1777   -2.4368 C.ar    1  UNL1        0.0372
     12 C          62.9745   95.1104   -2.8885 C.2     1  UNL1        0.2493
     13 O          63.0499   96.6036   -2.7678 O.2     1  UNL1       -0.2699
     14 N          63.8482   94.3925   -3.8740 N.am    1  UNL1       -0.2710
     15 C          64.0478   92.9588   -4.2672 C.3     1  UNL1        0.1247
     16 C          65.0839   93.3774   -5.2678 C.3     1  UNL1        0.1500
     17 O          65.9576   92.6596   -6.2534 O.3     1  UNL1       -0.3810
     18 C          64.8843   94.8111   -4.8747 C.3     1  UNL1        0.1247
     19 H          65.7853   91.7063   -6.2039 H       1  UNL1        0.2105
     20 C          60.1078   94.7957   -3.7150 C.ar    1  UNL1        0.0826
     21 C          59.5402   96.1842   -3.7087 C.ar    1  UNL1        0.0192
     22 C          59.0560   96.8022   -4.9868 C.ar    1  UNL1        0.0031
     23 C          59.1393   96.0318   -6.2711 C.ar    1  UNL1        0.0207
     24 C          59.7068   94.6434   -6.2773 C.ar    1  UNL1        0.0988
     25 N          60.1911   94.0253   -4.9993 N.ar    1  UNL1       -0.2438
     26 C          57.1173   93.3634   -0.9641 C.3     1  UNL1        0.0278
     27 C          58.2096   93.2449   -1.9853 C.3     1  UNL1        0.1110
     28 N          57.8686   92.9691   -3.4197 N.pl3   1  UNL1       -0.3141
     29 H          58.3275   92.2455   -3.9044 H       1  UNL1        0.1485
     30 C          56.8283   93.7958   -4.1156 C.ar    1  UNL1        0.1429
     31 N          56.3098   95.0470   -3.4707 N.ar    1  UNL1       -0.2084
     32 C          55.2696   95.8738   -4.1666 C.ar    1  UNL1        0.2012
     33 N          54.7477   95.4494   -5.5073 N.ar    1  UNL1       -0.2087
     34 C          55.2661   94.1983   -6.1522 C.ar    1  UNL1        0.1396
     35 N          54.7443   93.7739   -7.4929 N.pl3   1  UNL1       -0.3420
     36 C          56.3065   93.3715   -5.4563 C.ar    1  UNL1        0.1308
     37 H          54.0615   94.3165   -7.9497 H       1  UNL1        0.1437
     38 H          55.0846   92.9527   -7.9162 H       1  UNL1        0.1437
     39 C          56.8249   92.1203   -6.1012 C.1     1  UNL1        0.1061
     40 N          57.3433   90.8692   -6.7460 N.1     1  UNL1       -0.1906
@<TRIPOS>BOND
     1    26    27    1
     2    27    28    1
     3    28    30    1
     4    30    31   ar
     5    31    32   ar
     6    32    33   ar
     7    33    34   ar
     8    34    35    1
     9    34    36   ar
    10    36    39    1
    11    39    40    3
    12    27     1    1
    13     1     2   ar
    14     2     3   ar
    15     3     4   ar
    16     4     5   ar
    17     5     6   ar
    18     6     7    1
    19     6     8   ar
    20     8     9   ar
    21     9    10   ar
    22    10    12    1
    23    12    13    2
    24    12    14   am
    25    14    15    1
    26    15    16    1
    27    16    17    1
    28    16    18    1
    29    10    11   ar
    30    11    20    1
    31    20    21   ar
    32    21    22   ar
    33    22    23   ar
    34    23    24   ar
    35    24    25   ar
    36    36    30   ar
    37    11     1   ar
    38    25    20   ar
    39     9     3   ar
    40    18    14    1
    41    28    29    1
    42    35    37    1
    43    35    38    1
    44    17    19    1
@<TRIPOS>MOLECULE
*****
 40 44 0 0 0
SMALL
GASTEIGER

@<TRIPOS>ATOM
      1 C          59.4222   93.4735   -2.0141 C.ar    1  UNL1        0.0782
      2 N          59.8015   92.8559   -0.7009 N.ar    1  UNL1       -0.2480
      3 C          61.1986   93.0076   -0.1763 C.ar    1  UNL1        0.0812
      4 C          61.5779   92.3900    1.1369 C.ar    1  UNL1        0.0214
      5 C          62.9750   92.5418    1.6614 C.ar    1  UNL1        0.0312
      6 C          63.9928   93.3112    0.8727 C.ar    1  UNL1        0.1402
      7 F          65.3899   93.4629    1.3972 F       1  UNL1       -0.2042
      8 C          63.6135   93.9288   -0.4406 C.ar    1  UNL1        0.0313
      9 C          62.2164   93.7770   -0.9651 C.ar    1  UNL1        0.0243
     10 C          61.8371   94.3946   -2.2784 C.ar    1  UNL1        0.0577
     11 C          60.4400   94.2428   -2.8029 C.ar    1  UNL1        0.0372
     12 C          62.8549   95.1640   -3.0672 C.2     1  UNL1        0.2493
     13 O          62.9568   96.6522   -2.9104 O.2     1  UNL1       -0.2699
     14 N          63.7709   94.4450   -4.0128 N.am    1  UNL1       -0.2710
     15 C          63.9615   93.0150   -4.4235 C.3     1  UNL1        0.1247
     16 C          65.0663   93.4283   -5.3501 C.3     1  UNL1        0.1500
     17 O          65.9822   92.7094   -6.2957 O.3     1  UNL1       -0.3810
     18 C          64.8757   94.8584   -4.9394 C.3     1  UNL1        0.1247
     19 H          65.7855   91.7597   -6.2771 H       1  UNL1        0.2105
     20 C          60.0607   94.8605   -4.1162 C.ar    1  UNL1        0.0826
     21 C          60.2752   94.1011   -5.3919 C.ar    1  UNL1        0.0192
     22 C          59.8959   94.7186   -6.7052 C.ar    1  UNL1        0.0031
     23 C          59.3021   96.0955   -6.7428 C.ar    1  UNL1        0.0207
     24 C          59.0877   96.8549   -5.4671 C.ar    1  UNL1        0.0988
     25 N          59.4669   96.2374   -4.1538 N.ar    1  UNL1       -0.2438
     26 C          57.5722   92.0048   -3.0960 C.3     1  UNL1        0.0278
     27 C          58.0251   93.3217   -2.5387 C.3     1  UNL1        0.1110
     28 N          57.0810   94.4868   -2.5059 N.pl3   1  UNL1       -0.3141
     29 H          57.0345   95.0604   -1.7071 H       1  UNL1        0.1485
     30 C          56.2078   94.7781   -3.6902 C.ar    1  UNL1        0.1429
     31 N          56.6218   94.3215   -5.0577 N.ar    1  UNL1       -0.2084
     32 C          55.7486   94.6127   -6.2420 C.ar    1  UNL1        0.2012
     33 N          54.4612   95.3605   -6.0588 N.ar    1  UNL1       -0.2087
     34 C          54.0472   95.8171   -4.6914 C.ar    1  UNL1        0.1396
     35 N          52.7598   96.5649   -4.5082 N.pl3   1  UNL1       -0.3420
     36 C          54.9204   95.5259   -3.5070 C.ar    1  UNL1        0.1308
     37 H          52.1867   96.7561   -5.2855 H       1  UNL1        0.1437
     38 H          52.4881   96.8646   -3.6106 H       1  UNL1        0.1437
     39 C          54.5064   95.9825   -2.1395 C.1     1  UNL1        0.1061
     40 N          54.0923   96.4391   -0.7720 N.1     1  UNL1       -0.1906
@<TRIPOS>BOND
     1    26    27    1
     2    27    28    1
     3    28    30    1
     4    30    31   ar
     5    31    32   ar
     6    32    33   ar
     7    33    34   ar
     8    34    35    1
     9    34    36   ar
    10    36    39    1
    11    39    40    3
    12    27     1    1
    13     1     2   ar
    14     2     3   ar
    15     3     4   ar
    16     4     5   ar
    17     5     6   ar
    18     6     7    1
    19     6     8   ar
    20     8     9   ar
    21     9    10   ar
    22    10    12    1
    23    12    13    2
    24    12    14   am
    25    14    15    1
    26    15    16    1
    27    16    17    1
    28    16    18    1
    29    10    11   ar
    30    11    20    1
    31    20    21   ar
    32    21    22   ar
    33    22    23   ar
    34    23    24   ar
    35    24    25   ar
    36    36    30   ar
    37    11     1   ar
    38    25    20   ar
    39     9     3   ar
    40    18    14    1
    41    28    29    1
    42    35    37    1
    43    35    38    1
    44    17    19    1
@<TRIPOS>MOLECULE
*****
 40 44 0 0 0
SMALL
GASTEIGER

@<TRIPOS>ATOM
      1 C          63.5328   87.4242   13.1486 C.ar    1  UNL1        0.0782
      2 N          64.1452   86.1461   13.6399 N.ar    1  UNL1       -0.2480
      3 C          63.8149   84.8480   12.9646 C.ar    1  UNL1        0.0812
      4 C          64.4273   83.5699   13.4559 C.ar    1  UNL1        0.0214
      5 C          64.0970   82.2720   12.7806 C.ar    1  UNL1        0.0312
      6 C          63.1544   82.2521   11.6139 C.ar    1  UNL1        0.1402
      7 F          62.8241   80.9540   10.9386 F       1  UNL1       -0.2042
      8 C          62.5420   83.5302   11.1226 C.ar    1  UNL1        0.0313
      9 C          62.8723   84.8281   11.7980 C.ar    1  UNL1        0.0243
     10 C          62.2599   86.1063   11.3067 C.ar    1  UNL1        0.0577
     11 C          62.5901   87.4043   11.9820 C.ar    1  UNL1        0.0372
     12 C          61.3172   86.0864   10.1401 C.2     1  UNL1        0.2493
     13 O          59.9008   86.5491   10.3123 O.2     1  UNL1       -0.2699
     14 N          61.7910   85.6039    8.8011 N.am    1  UNL1       -0.2710
     15 C          63.0891   85.0819    8.2603 C.3     1  UNL1        0.1247
     16 C          62.4610   84.9215    6.9076 C.3     1  UNL1        0.1500
     17 O          62.9348   84.4390    5.5687 O.3     1  UNL1       -0.3810
     18 C          61.1629   85.4434    7.4484 C.3     1  UNL1        0.1247
     19 H          63.8673   84.1791    5.6301 H       1  UNL1        0.2105
     20 C          61.9777   88.6825   11.4907 C.ar    1  UNL1        0.0826
     21 C          62.5783   89.3996   10.3181 C.ar    1  UNL1        0.0192
     22 C          61.9659   90.6778    9.8268 C.ar    1  UNL1        0.0031
     23 C          60.7531   91.2387   10.5082 C.ar    1  UNL1        0.0207
     24 C          60.1526   90.5216   11.6808 C.ar    1  UNL1        0.0988
     25 N          60.7649   89.2435   12.1721 N.ar    1  UNL1       -0.2438
     26 C          64.5726   88.7209   15.1455 C.3     1  UNL1        0.0278
     27 C          63.8630   88.7223   13.8240 C.3     1  UNL1        0.1110
     28 N          63.4837   90.0217   13.1778 N.pl3   1  UNL1       -0.3141
     29 H          62.5477   90.1901   12.9233 H       1  UNL1        0.1485
     30 C          64.5305   91.0645   12.9194 C.ar    1  UNL1        0.1429
     31 N          65.1031   91.2273   11.5425 N.ar    1  UNL1       -0.2084
     32 C          66.1499   92.2701   11.2841 C.ar    1  UNL1        0.2012
     33 N          66.6241   93.1501   12.4025 N.ar    1  UNL1       -0.2087
     34 C          66.0515   92.9873   13.7793 C.ar    1  UNL1        0.1396
     35 N          66.5257   93.8673   14.8976 N.pl3   1  UNL1       -0.3420
     36 C          65.0047   91.9444   14.0377 C.ar    1  UNL1        0.1308
     37 H          67.2127   94.5517   14.7280 H       1  UNL1        0.1437
     38 H          66.1499   93.7604   15.8013 H       1  UNL1        0.1437
     39 C          64.4321   91.7816   15.4145 C.1     1  UNL1        0.1061
     40 N          63.8595   91.6188   16.7913 N.1     1  UNL1       -0.1906
@<TRIPOS>BOND
     1    26    27    1
     2    27    28    1
     3    28    30    1
     4    30    31   ar
     5    31    32   ar
     6    32    33   ar
     7    33    34   ar
     8    34    35    1
     9    34    36   ar
    10    36    39    1
    11    39    40    3
    12    27     1    1
    13     1     2   ar
    14     2     3   ar
    15     3     4   ar
    16     4     5   ar
    17     5     6   ar
    18     6     7    1
    19     6     8   ar
    20     8     9   ar
    21     9    10   ar
    22    10    12    1
    23    12    13    2
    24    12    14   am
    25    14    15    1
    26    15    16    1
    27    16    17    1
    28    16    18    1
    29    10    11   ar
    30    11    20    1
    31    20    21   ar
    32    21    22   ar
    33    22    23   ar
    34    23    24   ar
    35    24    25   ar
    36    36    30   ar
    37    11     1   ar
    38    25    20   ar
    39     9     3   ar
    40    18    14    1
    41    28    29    1
    42    35    37    1
    43    35    38    1
    44    17    19    1
@<TRIPOS>MOLECULE
*****
 40 44 0 0 0
SMALL
GASTEIGER

@<TRIPOS>ATOM
      1 C          58.9000   94.4163   -0.3919 C.ar    1  UNL1        0.0782
      2 N          58.8971   93.8462    0.9954 N.ar    1  UNL1       -0.2480
      3 C          60.1395   93.2135    1.5489 C.ar    1  UNL1        0.0812
      4 C          60.1366   92.6433    2.9362 C.ar    1  UNL1        0.0214
      5 C          61.3790   92.0106    3.4896 C.ar    1  UNL1        0.0312
      6 C          62.6242   91.9482    2.6556 C.ar    1  UNL1        0.1402
      7 F          63.8666   91.3155    3.2091 F       1  UNL1       -0.2042
      8 C          62.6271   92.5184    1.2683 C.ar    1  UNL1        0.0313
      9 C          61.3847   93.1510    0.7149 C.ar    1  UNL1        0.0243
     10 C          61.3875   93.7213   -0.6725 C.ar    1  UNL1        0.0577
     11 C          60.1452   94.3539   -1.2259 C.ar    1  UNL1        0.0372
     12 C          62.6328   93.6588   -1.5065 C.2     1  UNL1        0.2493
     13 O          62.7401   92.6600   -2.6204 O.2     1  UNL1       -0.2699
     14 N          63.7707   94.5953   -1.2266 N.am    1  UNL1       -0.2710
     15 C          64.0231   95.6907   -0.2334 C.3     1  UNL1        0.1247
     16 C          65.3799   95.9196   -0.8307 C.3     1  UNL1        0.1500
     17 O          66.5178   96.8560   -0.5508 O.3     1  UNL1       -0.3810
     18 C          65.1274   94.8242   -1.8239 C.3     1  UNL1        0.1247
     19 H          66.2869   97.4314    0.1952 H       1  UNL1        0.2105
     20 C          60.1480   94.9242   -2.6133 C.ar    1  UNL1        0.0826
     21 C          60.7256   96.2857   -2.8634 C.ar    1  UNL1        0.0192
     22 C          60.7284   96.8560   -4.2507 C.ar    1  UNL1        0.0031
     23 C          60.1537   96.0647   -5.3880 C.ar    1  UNL1        0.0207
     24 C          59.5761   94.7031   -5.1380 C.ar    1  UNL1        0.0988
     25 N          59.5733   94.1328   -3.7506 N.ar    1  UNL1       -0.2438
     26 C          57.4544   96.5306   -0.8284 C.3     1  UNL1        0.0278
     27 C          57.6576   95.0490   -0.9454 C.3     1  UNL1        0.1110
     28 N          56.6184   94.2001   -1.6158 N.pl3   1  UNL1       -0.3141
     29 H          56.3861   93.3195   -1.2420 H       1  UNL1        0.1485
     30 C          55.9331   94.6931   -2.8557 C.ar    1  UNL1        0.1429
     31 N          55.2379   96.0223   -2.8503 N.ar    1  UNL1       -0.2084
     32 C          54.5526   96.5153   -4.0902 C.ar    1  UNL1        0.2012
     33 N          54.5625   95.6790   -5.3355 N.ar    1  UNL1       -0.2087
     34 C          55.2576   94.3499   -5.3408 C.ar    1  UNL1        0.1396
     35 N          55.2674   93.5137   -6.5861 N.pl3   1  UNL1       -0.3420
     36 C          55.9429   93.8569   -4.1009 C.ar    1  UNL1        0.1308
     37 H          54.8176   93.8372   -7.3999 H       1  UNL1        0.1437
     38 H          55.7237   92.6413   -6.5896 H       1  UNL1        0.1437
     39 C          56.6381   92.5277   -4.1063 C.1     1  UNL1        0.1061
     40 N          57.3332   91.1986   -4.1117 N.1     1  UNL1       -0.1906
@<TRIPOS>BOND
     1    26    27    1
     2    27    28    1
     3    28    30    1
     4    30    31   ar
     5    31    32   ar
     6    32    33   ar
     7    33    34   ar
     8    34    35    1
     9    34    36   ar
    10    36    39    1
    11    39    40    3
    12    27     1    1
    13     1     2   ar
    14     2     3   ar
    15     3     4   ar
    16     4     5   ar
    17     5     6   ar
    18     6     7    1
    19     6     8   ar
    20     8     9   ar
    21     9    10   ar
    22    10    12    1
    23    12    13    2
    24    12    14   am
    25    14    15    1
    26    15    16    1
    27    16    17    1
    28    16    18    1
    29    10    11   ar
    30    11    20    1
    31    20    21   ar
    32    21    22   ar
    33    22    23   ar
    34    23    24   ar
    35    24    25   ar
    36    36    30   ar
    37    11     1   ar
    38    25    20   ar
    39     9     3   ar
    40    18    14    1
    41    28    29    1
    42    35    37    1
    43    35    38    1
    44    17    19    1
