@<TRIPOS>MOLECULE
*****
 32 36 0 0 0
SMALL
GASTEIGER

@<TRIPOS>ATOM
      1 C          63.2321   84.8248   13.1442 C.ar    1  UNL1        0.2014
      2 N          62.8247   83.8863   14.2410 N.ar    1  UNL1       -0.2136
      3 C          62.6745   82.5169   13.6474 C.ar    1  UNL1        0.0999
      4 C          62.2919   81.1979   14.2506 C.ar    1  UNL1        0.0207
      5 C          62.2240   79.9712   13.3901 C.ar    1  UNL1        0.0016
      6 C          62.5386   80.0635   11.9264 C.ar    1  UNL1        0.0016
      7 C          62.9212   81.3824   11.3232 C.ar    1  UNL1        0.0188
      8 C          62.9891   82.6092   12.1837 C.ar    1  UNL1        0.0801
      9 N          63.3337   84.0355   11.8727 N.ar    1  UNL1       -0.2954
     10 C          64.0124   89.2342   13.5898 C.3     1  UNL1        0.0610
     11 C          64.5080   88.2758   14.6318 C.3     1  UNL1        0.0375
     12 C          64.2479   86.8060   14.4832 C.3     1  UNL1        0.0949
     13 N          63.4922   86.2946   13.2927 N.pl3   1  UNL1       -0.2794
     14 C          62.9966   87.2531   12.2507 C.3     1  UNL1        0.0949
     15 C          63.2567   88.7228   12.3993 C.3     1  UNL1        0.0375
     16 C          63.9218   91.6441   12.6235 C.3     1  UNL1        0.0896
     17 N          64.2725   90.7040   13.7384 N.3     1  UNL1       -0.2727
     18 C          64.8834   91.2336   15.0018 C.3     1  UNL1        0.0722
     19 C          66.2532   91.8442   14.9740 C.3     1  UNL1        0.0210
     20 C          67.1805   91.5543   13.8313 C.3     1  UNL1        0.0335
     21 C          68.5503   92.1649   13.8035 C.3     1  UNL1        0.1422
     22 O          68.9928   93.0654   14.9185 O.3     1  UNL1       -0.3538
     23 C          68.0654   93.3554   16.0613 C.3     1  UNL1        0.1422
     24 C          66.6956   92.7448   16.0891 C.3     1  UNL1        0.0335
     25 C          63.7133   84.5774   10.5265 C.3     1  UNL1        0.1354
     26 C          62.6512   85.0746    9.5914 C.ar    1  UNL1        0.0006
     27 C          62.7727   84.8245    8.1173 C.ar    1  UNL1       -0.0001
     28 C          61.7106   85.3217    7.1821 C.ar    1  UNL1        0.0294
     29 C          60.5268   86.0689    7.7209 C.ar    1  UNL1        0.1401
     30 F          59.4646   86.5661    6.7857 F       1  UNL1       -0.2042
     31 C          60.4052   86.3190    9.1949 C.ar    1  UNL1        0.0294
     32 C          61.4674   85.8218   10.1301 C.ar    1  UNL1       -0.0001
@<TRIPOS>BOND
     1    16    17    1
     2    17    18    1
     3    18    19    1
     4    19    20    1
     5    20    21    1
     6    21    22    1
     7    22    23    1
     8    23    24    1
     9    17    10    1
    10    10    11    1
    11    11    12    1
    12    12    13    1
    13    13     1    1
    14     1     2   ar
    15     2     3   ar
    16     3     4   ar
    17     4     5   ar
    18     5     6   ar
    19     6     7   ar
    20     7     8   ar
    21     8     9   ar
    22     9    25    1
    23    25    26    1
    24    26    27   ar
    25    27    28   ar
    26    28    29   ar
    27    29    30    1
    28    29    31   ar
    29    31    32   ar
    30    13    14    1
    31    14    15    1
    32    24    19    1
    33    15    10    1
    34     9     1   ar
    35    32    26   ar
    36     8     3   ar
@<TRIPOS>MOLECULE
*****
 32 36 0 0 0
SMALL
GASTEIGER

@<TRIPOS>ATOM
      1 C          64.4638   91.2921   12.9357 C.ar    1  UNL1        0.2014
      2 N          65.6481   92.1030   12.5001 N.ar    1  UNL1       -0.2136
      3 C          66.3937   92.5318   13.7290 C.ar    1  UNL1        0.0999
      4 C          67.6380   93.3488   13.9141 C.ar    1  UNL1        0.0207
      5 C          68.1587   93.6198   15.2945 C.ar    1  UNL1        0.0016
      6 C          67.4352   93.0738   16.4896 C.ar    1  UNL1        0.0016
      7 C          66.1910   92.2568   16.3045 C.ar    1  UNL1        0.0188
      8 C          65.6703   91.9858   14.9242 C.ar    1  UNL1        0.0801
      9 N          64.4775   91.2196   14.4339 N.ar    1  UNL1       -0.2954
     10 C          61.4067   89.4075   10.2242 C.3     1  UNL1        0.0610
     11 C          62.5220   90.2250    9.6432 C.3     1  UNL1        0.0375
     12 C          63.5411   90.8532   10.5470 C.3     1  UNL1        0.0949
     13 N          63.4448   90.6639   12.0318 N.pl3   1  UNL1       -0.2794
     14 C          62.3294   89.8464   12.6129 C.3     1  UNL1        0.0949
     15 C          61.3104   89.2182   11.7090 C.3     1  UNL1        0.0375
     16 C          59.6881   89.6109    8.2864 C.3     1  UNL1        0.0896
     17 N          60.3876   88.7794    9.3203 N.3     1  UNL1       -0.2727
     18 C          60.0681   87.3196    9.4504 C.3     1  UNL1        0.0722
     19 C          61.1774   86.3160    9.5613 C.3     1  UNL1        0.0210
     20 C          61.5112   85.7111   10.8926 C.3     1  UNL1        0.0335
     21 C          62.6205   84.7075   11.0035 C.3     1  UNL1        0.1422
     22 O          63.3960   84.3088    9.7830 O.3     1  UNL1       -0.3538
     23 C          63.0622   84.9138    8.4516 C.3     1  UNL1        0.1422
     24 C          61.9530   85.9174    8.3407 C.3     1  UNL1        0.0335
     25 C          63.4745   90.5062   15.2913 C.3     1  UNL1        0.1354
     26 C          63.6122   89.0333   15.5389 C.ar    1  UNL1        0.0006
     27 C          64.3722   88.1775   14.5693 C.ar    1  UNL1       -0.0001
     28 C          64.5098   86.7045   14.8169 C.ar    1  UNL1        0.0294
     29 C          63.8875   86.0872   16.0341 C.ar    1  UNL1        0.1401
     30 F          64.0252   84.6142   16.2817 F       1  UNL1       -0.2042
     31 C          63.1275   86.9430   17.0037 C.ar    1  UNL1        0.0294
     32 C          62.9899   88.4160   16.7561 C.ar    1  UNL1       -0.0001
@<TRIPOS>BOND
     1    16    17    1
     2    17    18    1
     3    18    19    1
     4    19    20    1
     5    20    21    1
     6    21    22    1
     7    22    23    1
     8    23    24    1
     9    17    10    1
    10    10    11    1
    11    11    12    1
    12    12    13    1
    13    13     1    1
    14     1     2   ar
    15     2     3   ar
    16     3     4   ar
    17     4     5   ar
    18     5     6   ar
    19     6     7   ar
    20     7     8   ar
    21     8     9   ar
    22     9    25    1
    23    25    26    1
    24    26    27   ar
    25    27    28   ar
    26    28    29   ar
    27    29    30    1
    28    29    31   ar
    29    31    32   ar
    30    13    14    1
    31    14    15    1
    32    24    19    1
    33    15    10    1
    34     9     1   ar
    35    32    26   ar
    36     8     3   ar
@<TRIPOS>MOLECULE
*****
 32 36 0 0 0
SMALL
GASTEIGER

@<TRIPOS>ATOM
      1 C          63.2773   84.9285   13.2348 C.ar    1  UNL1        0.2014
      2 N          62.8941   83.9609   14.3150 N.ar    1  UNL1       -0.2136
      3 C          62.7441   82.6051   13.6909 C.ar    1  UNL1        0.0999
      4 C          62.3806   81.2692   14.2681 C.ar    1  UNL1        0.0207
      5 C          62.3075   80.0631   13.3793 C.ar    1  UNL1        0.0016
      6 C          62.5981   80.1928   11.9135 C.ar    1  UNL1        0.0016
      7 C          62.9617   81.5287   11.3364 C.ar    1  UNL1        0.0188
      8 C          63.0347   82.7349   12.2251 C.ar    1  UNL1        0.0801
      9 N          63.3642   84.1708   11.9432 N.ar    1  UNL1       -0.2954
     10 C          64.0335   89.3316   13.7746 C.3     1  UNL1        0.0610
     11 C          64.5144   88.3559   14.8073 C.3     1  UNL1        0.0375
     12 C          64.2623   86.8882   14.6274 C.3     1  UNL1        0.0949
     13 N          63.5294   86.3962   13.4147 N.pl3   1  UNL1       -0.2794
     14 C          63.0485   87.3719   12.3820 C.3     1  UNL1        0.0949
     15 C          63.3005   88.8396   12.5619 C.3     1  UNL1        0.0375
     16 C          64.5965   91.3455   15.3164 C.3     1  UNL1        0.0896
     17 N          64.2856   90.7993   13.9545 N.3     1  UNL1       -0.2727
     18 C          64.2267   91.7208   12.7724 C.3     1  UNL1        0.0722
     19 C          65.4906   92.1253   12.0731 C.3     1  UNL1        0.0210
     20 C          65.4234   92.8349   10.7533 C.3     1  UNL1        0.0335
     21 C          66.6872   93.2394   10.0540 C.3     1  UNL1        0.1422
     22 O          68.0183   92.9343   10.6745 O.3     1  UNL1       -0.3538
     23 C          68.0856   92.2247   11.9944 C.3     1  UNL1        0.1422
     24 C          66.8217   91.8202   12.6937 C.3     1  UNL1        0.0335
     25 C          63.7184   84.7478   10.6047 C.3     1  UNL1        0.1354
     26 C          62.6340   85.1943    9.6696 C.ar    1  UNL1        0.0006
     27 C          61.4389   85.9276   10.2027 C.ar    1  UNL1       -0.0001
     28 C          60.3543   86.3742    9.2677 C.ar    1  UNL1        0.0294
     29 C          60.4648   86.0874    7.7994 C.ar    1  UNL1        0.1401
     30 F          59.3803   86.5339    6.8644 F       1  UNL1       -0.2042
     31 C          61.6598   85.3541    7.2664 C.ar    1  UNL1        0.0294
     32 C          62.7444   84.9075    8.2014 C.ar    1  UNL1       -0.0001
@<TRIPOS>BOND
     1    16    17    1
     2    17    18    1
     3    18    19    1
     4    19    20    1
     5    20    21    1
     6    21    22    1
     7    22    23    1
     8    23    24    1
     9    17    10    1
    10    10    11    1
    11    11    12    1
    12    12    13    1
    13    13     1    1
    14     1     2   ar
    15     2     3   ar
    16     3     4   ar
    17     4     5   ar
    18     5     6   ar
    19     6     7   ar
    20     7     8   ar
    21     8     9   ar
    22     9    25    1
    23    25    26    1
    24    26    27   ar
    25    27    28   ar
    26    28    29   ar
    27    29    30    1
    28    29    31   ar
    29    31    32   ar
    30    13    14    1
    31    14    15    1
    32    24    19    1
    33    15    10    1
    34     9     1   ar
    35    32    26   ar
    36     8     3   ar
@<TRIPOS>MOLECULE
*****
 32 36 0 0 0
SMALL
GASTEIGER

@<TRIPOS>ATOM
      1 C          64.9090   91.2588   13.1058 C.ar    1  UNL1        0.2014
      2 N          64.7825   91.4813   14.5838 N.ar    1  UNL1       -0.2136
      3 C          66.0443   92.1351   15.0639 C.ar    1  UNL1        0.0999
      4 C          66.4850   92.5885   16.4240 C.ar    1  UNL1        0.0207
      5 C          67.8321   93.2235   16.6029 C.ar    1  UNL1        0.0016
      6 C          68.7385   93.4050   15.4216 C.ar    1  UNL1        0.0016
      7 C          68.2978   92.9516   14.0614 C.ar    1  UNL1        0.0188
      8 C          66.9507   92.3166   13.8825 C.ar    1  UNL1        0.0801
      9 N          66.2490   91.7750   12.6724 N.ar    1  UNL1       -0.2954
     10 C          61.8123   89.3735   10.4401 C.3     1  UNL1        0.0610
     11 C          62.4248   90.6899   10.0636 C.3     1  UNL1        0.0375
     12 C          63.4571   91.3183   10.9522 C.3     1  UNL1        0.0949
     13 N          63.8768   90.6303   12.2172 N.pl3   1  UNL1       -0.2794
     14 C          63.2642   89.3139   12.5937 C.3     1  UNL1        0.0949
     15 C          62.2320   88.6855   11.7052 C.3     1  UNL1        0.0375
     16 C          60.1350   89.5520    8.4640 C.3     1  UNL1        0.0896
     17 N          60.7801   88.7450    9.5515 N.3     1  UNL1       -0.2727
     18 C          60.3929   87.3096    9.7504 C.3     1  UNL1        0.0722
     19 C          61.4444   86.2401    9.7352 C.3     1  UNL1        0.0210
     20 C          61.7971   85.5169   11.0011 C.3     1  UNL1        0.0335
     21 C          62.8487   84.4474   10.9858 C.3     1  UNL1        0.1422
     22 O          63.5476   84.1010    9.7046 O.3     1  UNL1       -0.3538
     23 C          63.1950   84.8242    8.4386 C.3     1  UNL1        0.1422
     24 C          62.1434   85.8938    8.4539 C.3     1  UNL1        0.0335
     25 C          66.7921   91.7535   11.2743 C.3     1  UNL1        0.1354
     26 C          66.9024   93.0290   10.4929 C.ar    1  UNL1        0.0006
     27 C          67.8612   93.1236    9.3431 C.ar    1  UNL1       -0.0001
     28 C          67.9716   94.3991    8.5615 C.ar    1  UNL1        0.0294
     29 C          67.1232   95.5801    8.9297 C.ar    1  UNL1        0.1401
     30 F          67.2336   96.8556    8.1481 F       1  UNL1       -0.2042
     31 C          66.1645   95.4855   10.0794 C.ar    1  UNL1        0.0294
     32 C          66.0541   94.2100   10.8610 C.ar    1  UNL1       -0.0001
@<TRIPOS>BOND
     1    16    17    1
     2    17    18    1
     3    18    19    1
     4    19    20    1
     5    20    21    1
     6    21    22    1
     7    22    23    1
     8    23    24    1
     9    17    10    1
    10    10    11    1
    11    11    12    1
    12    12    13    1
    13    13     1    1
    14     1     2   ar
    15     2     3   ar
    16     3     4   ar
    17     4     5   ar
    18     5     6   ar
    19     6     7   ar
    20     7     8   ar
    21     8     9   ar
    22     9    25    1
    23    25    26    1
    24    26    27   ar
    25    27    28   ar
    26    28    29   ar
    27    29    30    1
    28    29    31   ar
    29    31    32   ar
    30    13    14    1
    31    14    15    1
    32    24    19    1
    33    15    10    1
    34     9     1   ar
    35    32    26   ar
    36     8     3   ar
@<TRIPOS>MOLECULE
*****
 32 36 0 0 0
SMALL
GASTEIGER

@<TRIPOS>ATOM
      1 C          61.8709   89.3135   10.5796 C.ar    1  UNL1        0.2014
      2 N          61.2708   89.9984    9.3877 N.ar    1  UNL1       -0.2136
      3 C          60.4200   89.0005    8.6594 C.ar    1  UNL1        0.0999
      4 C          59.5872   89.1090    7.4165 C.ar    1  UNL1        0.0207
      5 C          58.8287   87.9158    6.9155 C.ar    1  UNL1        0.0016
      6 C          58.9030   86.6143    7.6574 C.ar    1  UNL1        0.0016
      7 C          59.7357   86.5058    8.9003 C.ar    1  UNL1        0.0188
      8 C          60.4942   87.6990    9.4012 C.ar    1  UNL1        0.0801
      9 N          61.3910   87.8924   10.5880 N.ar    1  UNL1       -0.2954
     10 C          64.6272   91.1923   13.6001 C.3     1  UNL1        0.0610
     11 C          64.2292   91.9551   12.3714 C.3     1  UNL1        0.0375
     12 C          63.3105   91.3288   11.3646 C.3     1  UNL1        0.0949
     13 N          62.7897   89.9398   11.5865 N.pl3   1  UNL1       -0.2794
     14 C          63.1876   89.1770   12.8152 C.3     1  UNL1        0.0949
     15 C          64.1064   89.8033   13.8220 C.3     1  UNL1        0.0375
     16 C          65.1269   91.9201   16.0436 C.3     1  UNL1        0.0896
     17 N          65.5459   91.8186   14.6069 N.3     1  UNL1       -0.2727
     18 C          66.8837   92.3434   14.1771 C.3     1  UNL1        0.0722
     19 C          67.0928   92.7951   12.7621 C.3     1  UNL1        0.0210
     20 C          67.8682   91.9363   11.8075 C.3     1  UNL1        0.0335
     21 C          68.0773   92.3879   10.3925 C.3     1  UNL1        0.1422
     22 O          67.5110   93.6984    9.9320 O.3     1  UNL1       -0.3538
     23 C          66.7356   94.5572   10.8866 C.3     1  UNL1        0.1422
     24 C          66.5265   94.1056   12.3016 C.3     1  UNL1        0.0335
     25 C          61.7455   86.8480   11.6047 C.3     1  UNL1        0.1354
     26 C          62.4722   85.6059   11.1819 C.ar    1  UNL1        0.0006
     27 C          62.7939   85.3812    9.7341 C.ar    1  UNL1       -0.0001
     28 C          63.5206   84.1390    9.3112 C.ar    1  UNL1        0.0294
     29 C          63.9256   83.1214   10.3362 C.ar    1  UNL1        0.1401
     30 F          64.6523   81.8792    9.9133 F       1  UNL1       -0.2042
     31 C          63.6040   83.3461   11.7839 C.ar    1  UNL1        0.0294
     32 C          62.8772   84.5883   12.2068 C.ar    1  UNL1       -0.0001
@<TRIPOS>BOND
     1    16    17    1
     2    17    18    1
     3    18    19    1
     4    19    20    1
     5    20    21    1
     6    21    22    1
     7    22    23    1
     8    23    24    1
     9    17    10    1
    10    10    11    1
    11    11    12    1
    12    12    13    1
    13    13     1    1
    14     1     2   ar
    15     2     3   ar
    16     3     4   ar
    17     4     5   ar
    18     5     6   ar
    19     6     7   ar
    20     7     8   ar
    21     8     9   ar
    22     9    25    1
    23    25    26    1
    24    26    27   ar
    25    27    28   ar
    26    28    29   ar
    27    29    30    1
    28    29    31   ar
    29    31    32   ar
    30    13    14    1
    31    14    15    1
    32    24    19    1
    33    15    10    1
    34     9     1   ar
    35    32    26   ar
    36     8     3   ar
@<TRIPOS>MOLECULE
*****
 32 36 0 0 0
SMALL
GASTEIGER

@<TRIPOS>ATOM
      1 C          62.0413   88.6460   10.8787 C.ar    1  UNL1        0.2014
      2 N          60.8627   89.1760   10.1172 N.ar    1  UNL1       -0.2136
      3 C          60.3764   88.0916    9.2019 C.ar    1  UNL1        0.0999
      4 C          59.2475   88.0420    8.2155 C.ar    1  UNL1        0.0207
      5 C          58.9968   86.7922    7.4249 C.ar    1  UNL1        0.0016
      6 C          59.8749   85.5920    7.6207 C.ar    1  UNL1        0.0016
      7 C          61.0038   85.6416    8.6071 C.ar    1  UNL1        0.0188
      8 C          61.2546   86.8914    9.3977 C.ar    1  UNL1        0.0801
      9 N          62.2835   87.2341   10.4340 N.ar    1  UNL1       -0.2954
     10 C          64.4310   90.8967   13.9567 C.3     1  UNL1        0.0610
     11 C          63.8166   91.6297   12.8012 C.3     1  UNL1        0.0375
     12 C          63.0201   90.8794   11.7752 C.3     1  UNL1        0.0949
     13 N          62.8379   89.3962   11.9047 N.pl3   1  UNL1       -0.2794
     14 C          63.4522   88.6632   13.0602 C.3     1  UNL1        0.0949
     15 C          64.2488   89.4134   14.0862 C.3     1  UNL1        0.0375
     16 C          64.6750   91.8456   16.3629 C.3     1  UNL1        0.0896
     17 N          65.2276   91.6469   14.9826 N.3     1  UNL1       -0.2727
     18 C          66.5767   92.1984   14.6284 C.3     1  UNL1        0.0722
     19 C          66.8387   92.7065   13.2416 C.3     1  UNL1        0.0210
     20 C          67.6515   91.8869   12.2836 C.3     1  UNL1        0.0335
     21 C          67.9135   92.3951   10.8969 C.3     1  UNL1        0.1422
     22 O          67.3628   93.7228   10.4681 O.3     1  UNL1       -0.3538
     23 C          66.5500   94.5424   11.4261 C.3     1  UNL1        0.1422
     24 C          66.2880   94.0343   12.8128 C.3     1  UNL1        0.0335
     25 C          63.3648   86.3244   10.9373 C.3     1  UNL1        0.1354
     26 C          63.0089   85.1103   11.7430 C.ar    1  UNL1        0.0006
     27 C          62.9367   83.7659   11.0815 C.ar    1  UNL1       -0.0001
     28 C          62.5808   82.5517   11.8871 C.ar    1  UNL1        0.0294
     29 C          62.2971   82.6819   13.3543 C.ar    1  UNL1        0.1401
     30 F          61.9412   81.4677   14.1600 F       1  UNL1       -0.2042
     31 C          62.3694   84.0262   14.0158 C.ar    1  UNL1        0.0294
     32 C          62.7253   85.2404   13.2102 C.ar    1  UNL1       -0.0001
@<TRIPOS>BOND
     1    16    17    1
     2    17    18    1
     3    18    19    1
     4    19    20    1
     5    20    21    1
     6    21    22    1
     7    22    23    1
     8    23    24    1
     9    17    10    1
    10    10    11    1
    11    11    12    1
    12    12    13    1
    13    13     1    1
    14     1     2   ar
    15     2     3   ar
    16     3     4   ar
    17     4     5   ar
    18     5     6   ar
    19     6     7   ar
    20     7     8   ar
    21     8     9   ar
    22     9    25    1
    23    25    26    1
    24    26    27   ar
    25    27    28   ar
    26    28    29   ar
    27    29    30    1
    28    29    31   ar
    29    31    32   ar
    30    13    14    1
    31    14    15    1
    32    24    19    1
    33    15    10    1
    34     9     1   ar
    35    32    26   ar
    36     8     3   ar
@<TRIPOS>MOLECULE
*****
 32 36 0 0 0
SMALL
GASTEIGER

@<TRIPOS>ATOM
      1 C          65.4506   91.3338   13.6596 C.ar    1  UNL1        0.2014
      2 N          66.1557   90.7518   14.8487 N.ar    1  UNL1       -0.2136
      3 C          67.1565   91.7588   15.3329 C.ar    1  UNL1        0.0999
      4 C          68.1355   91.7347   16.4691 C.ar    1  UNL1        0.0207
      5 C          69.0277   92.9150   16.7154 C.ar    1  UNL1        0.0016
      6 C          68.9411   94.1194   15.8255 C.ar    1  UNL1        0.0016
      7 C          67.9621   94.1435   14.6893 C.ar    1  UNL1        0.0188
      8 C          67.0698   92.9632   14.4430 C.ar    1  UNL1        0.0801
      9 N          66.0155   92.7005   13.4089 N.ar    1  UNL1       -0.2954
     10 C          62.2093   89.3312   11.2650 C.3     1  UNL1        0.0610
     11 C          62.7834   88.6466   12.4698 C.3     1  UNL1        0.0375
     12 C          63.8638   89.3141   13.2680 C.3     1  UNL1        0.0949
     13 N          64.3702   90.6662   12.8614 N.pl3   1  UNL1       -0.2794
     14 C          63.7961   91.3508   11.6565 C.3     1  UNL1        0.0949
     15 C          62.7157   90.6833   10.8583 C.3     1  UNL1        0.0375
     16 C          60.3927   89.4331    9.4104 C.3     1  UNL1        0.0896
     17 N          61.1289   88.6637   10.4668 N.3     1  UNL1       -0.2727
     18 C          60.7848   87.2267   10.7249 C.3     1  UNL1        0.0722
     19 C          61.7366   86.1422   10.3151 C.3     1  UNL1        0.0210
     20 C          62.2190   86.0641    8.8970 C.3     1  UNL1        0.0335
     21 C          63.1708   84.9796    8.4872 C.3     1  UNL1        0.1422
     22 O          63.6403   83.9733    9.4956 O.3     1  UNL1       -0.3538
     23 C          63.1579   84.0514   10.9138 C.3     1  UNL1        0.1422
     24 C          62.2061   85.1359   11.3236 C.3     1  UNL1        0.0335
     25 C          65.5992   93.6397   12.3159 C.3     1  UNL1        0.1354
     26 C          66.3608   93.6719   11.0241 C.ar    1  UNL1        0.0006
     27 C          66.2259   94.8480   10.1029 C.ar    1  UNL1       -0.0001
     28 C          66.9875   94.8803    8.8111 C.ar    1  UNL1        0.0294
     29 C          67.8842   93.7363    8.4404 C.ar    1  UNL1        0.1401
     30 F          68.6458   93.7685    7.1485 F       1  UNL1       -0.2042
     31 C          68.0191   92.5602    9.3615 C.ar    1  UNL1        0.0294
     32 C          67.2575   92.5280   10.6533 C.ar    1  UNL1       -0.0001
@<TRIPOS>BOND
     1    16    17    1
     2    17    18    1
     3    18    19    1
     4    19    20    1
     5    20    21    1
     6    21    22    1
     7    22    23    1
     8    23    24    1
     9    17    10    1
    10    10    11    1
    11    11    12    1
    12    12    13    1
    13    13     1    1
    14     1     2   ar
    15     2     3   ar
    16     3     4   ar
    17     4     5   ar
    18     5     6   ar
    19     6     7   ar
    20     7     8   ar
    21     8     9   ar
    22     9    25    1
    23    25    26    1
    24    26    27   ar
    25    27    28   ar
    26    28    29   ar
    27    29    30    1
    28    29    31   ar
    29    31    32   ar
    30    13    14    1
    31    14    15    1
    32    24    19    1
    33    15    10    1
    34     9     1   ar
    35    32    26   ar
    36     8     3   ar
@<TRIPOS>MOLECULE
*****
 32 36 0 0 0
SMALL
GASTEIGER

@<TRIPOS>ATOM
      1 C          62.0769   89.1510   11.0879 C.ar    1  UNL1        0.2014
      2 N          61.2283   89.7309    9.9954 N.ar    1  UNL1       -0.2136
      3 C          60.6773   88.5957    9.1844 C.ar    1  UNL1        0.0999
      4 C          59.7786   88.5633    7.9839 C.ar    1  UNL1        0.0207
      5 C          59.3879   87.2494    7.3748 C.ar    1  UNL1        0.0016
      6 C          59.8960   85.9679    7.9661 C.ar    1  UNL1        0.0016
      7 C          60.7947   86.0003    9.1666 C.ar    1  UNL1        0.0188
      8 C          61.1854   87.3142    9.7757 C.ar    1  UNL1        0.0801
      9 N          62.0504   87.6574   10.9521 N.ar    1  UNL1       -0.2954
     10 C          64.3103   91.4829   14.2223 C.3     1  UNL1        0.0610
     11 C          64.4369   91.8588   12.7757 C.3     1  UNL1        0.0375
     12 C          63.6924   91.0815   11.7309 C.3     1  UNL1        0.0949
     13 N          62.8214   89.9283   12.1327 N.pl3   1  UNL1       -0.2794
     14 C          62.6948   89.5524   13.5793 C.3     1  UNL1        0.0949
     15 C          63.4393   90.3297   14.6241 C.3     1  UNL1        0.0375
     16 C          64.7682   92.0276   16.7210 C.3     1  UNL1        0.0896
     17 N          65.0547   92.2601   15.2671 N.3     1  UNL1       -0.2727
     18 C          66.0857   93.2699   14.8581 C.3     1  UNL1        0.0722
     19 C          67.4517   92.8177   14.4342 C.3     1  UNL1        0.0210
     20 C          68.6424   93.1199   15.2948 C.3     1  UNL1        0.0335
     21 C          70.0084   92.6676   14.8709 C.3     1  UNL1        0.1422
     22 O          70.1835   91.9132   13.5864 O.3     1  UNL1       -0.3538
     23 C          68.9928   91.6110   12.7257 C.3     1  UNL1        0.1422
     24 C          67.6268   92.0632   13.1496 C.3     1  UNL1        0.0335
     25 C          62.7636   86.6788   11.8374 C.3     1  UNL1        0.1354
     26 C          62.9260   85.2529   11.4012 C.ar    1  UNL1        0.0006
     27 C          62.4612   84.1387   12.2915 C.ar    1  UNL1       -0.0001
     28 C          62.6235   82.7127   11.8554 C.ar    1  UNL1        0.0294
     29 C          63.2507   82.4009   10.5289 C.ar    1  UNL1        0.1401
     30 F          63.4130   80.9750   10.0928 F       1  UNL1       -0.2042
     31 C          63.7154   83.5151    9.6387 C.ar    1  UNL1        0.0294
     32 C          63.5531   84.9411   10.0748 C.ar    1  UNL1       -0.0001
@<TRIPOS>BOND
     1    16    17    1
     2    17    18    1
     3    18    19    1
     4    19    20    1
     5    20    21    1
     6    21    22    1
     7    22    23    1
     8    23    24    1
     9    17    10    1
    10    10    11    1
    11    11    12    1
    12    12    13    1
    13    13     1    1
    14     1     2   ar
    15     2     3   ar
    16     3     4   ar
    17     4     5   ar
    18     5     6   ar
    19     6     7   ar
    20     7     8   ar
    21     8     9   ar
    22     9    25    1
    23    25    26    1
    24    26    27   ar
    25    27    28   ar
    26    28    29   ar
    27    29    30    1
    28    29    31   ar
    29    31    32   ar
    30    13    14    1
    31    14    15    1
    32    24    19    1
    33    15    10    1
    34     9     1   ar
    35    32    26   ar
    36     8     3   ar
