@<TRIPOS>MOLECULE
*****
 31 34 0 0 0
SMALL
GASTEIGER

@<TRIPOS>ATOM
      1 N          62.2389   86.5876   11.8247 N.pl3   1  UNL1       -0.2872
      2 N          64.7767   89.8193   13.6593 N.pl3   1  UNL1       -0.3074
      3 C          64.7398   88.4530   14.2773 C.3     1  UNL1        0.0925
      4 C          63.8939   87.3758   13.6658 C.3     1  UNL1        0.0415
      5 C          63.0848   87.6648   12.4362 C.3     1  UNL1        0.0807
      6 C          63.1217   89.0310   11.8182 C.3     1  UNL1        0.0415
      7 C          63.9676   90.1083   12.4297 C.3     1  UNL1        0.0925
      8 C          67.3145   93.0509   15.4939 C.ar    1  UNL1        0.0685
      9 C          66.0311   92.6404   16.1528 C.ar    1  UNL1        0.0115
     10 C          65.1852   91.5631   15.5413 C.ar    1  UNL1        0.0152
     11 C          65.6226   90.8965   14.2708 C.ar    1  UNL1        0.0479
     12 C          66.9061   91.3070   13.6119 C.ar    1  UNL1        0.0152
     13 C          67.7520   92.3842   14.2234 C.ar    1  UNL1        0.0115
     14 N          69.0064   95.2054   16.7169 N.1     1  UNL1       -0.1908
     15 C          68.1605   94.1281   16.1054 C.1     1  UNL1        0.1004
     16 C          62.3547   85.1744   12.3141 C.ar    1  UNL1        0.0515
     17 C          62.6460   84.0667   11.3454 C.ar    1  UNL1        0.0148
     18 C          62.7618   82.6536   11.8349 C.ar    1  UNL1        0.0051
     19 C          62.5863   82.3481   13.2929 C.ar    1  UNL1        0.0715
     20 C          62.2950   83.4557   14.2615 C.ar    1  UNL1        0.0051
     21 C          62.1792   84.8689   13.7721 C.ar    1  UNL1        0.0148
     22 C          62.7022   80.9348   13.7823 C.3     1  UNL1        0.4186
     23 F          62.8180   79.5217   14.2716 F       1  UNL1       -0.1659
     24 F          64.1716   80.9512   13.4817 F       1  UNL1       -0.1659
     25 F          61.2327   80.9185   14.0828 F       1  UNL1       -0.1659
     26 C          61.2771   86.9235   10.7237 C.ar    1  UNL1        0.0710
     27 C          61.4176   86.2715    9.3802 C.ar    1  UNL1        0.0180
     28 C          60.4558   86.6075    8.2792 C.ar    1  UNL1        0.0220
     29 C          59.3535   87.5954    8.5218 C.ar    1  UNL1        0.0990
     30 N          59.2129   88.2474    9.8654 N.ar    1  UNL1       -0.2410
     31 C          60.1747   87.9115   10.9663 C.ar    1  UNL1        0.1136
@<TRIPOS>BOND
     1    14    15    3
     2    15     8    1
     3     8     9   ar
     4     9    10   ar
     5    10    11   ar
     6    11     2    1
     7     2     3    1
     8     3     4    1
     9     4     5    1
    10     5     1    1
    11     1    16    1
    12    16    17   ar
    13    17    18   ar
    14    18    19   ar
    15    19    22    1
    16    22    23    1
    17    22    24    1
    18    22    25    1
    19    19    20   ar
    20    20    21   ar
    21     1    26    1
    22    26    27   ar
    23    27    28   ar
    24    28    29   ar
    25    29    30   ar
    26    30    31   ar
    27     5     6    1
    28     6     7    1
    29    11    12   ar
    30    12    13   ar
    31    13     8   ar
    32     7     2    1
    33    21    16   ar
    34    31    26   ar
@<TRIPOS>MOLECULE
*****
 31 34 0 0 0
SMALL
GASTEIGER

@<TRIPOS>ATOM
      1 N          62.2372   86.5920   11.8173 N.pl3   1  UNL1       -0.2872
      2 N          64.7741   89.8186   13.6621 N.pl3   1  UNL1       -0.3074
      3 C          64.7315   88.4527   14.2803 C.3     1  UNL1        0.0925
      4 C          63.8858   87.3771   13.6654 C.3     1  UNL1        0.0415
      5 C          63.0828   87.6676   12.4322 C.3     1  UNL1        0.0807
      6 C          63.1255   89.0335   11.8139 C.3     1  UNL1        0.0415
      7 C          63.9711   90.1090   12.4289 C.3     1  UNL1        0.0925
      8 C          67.3110   93.0452   15.5068 C.ar    1  UNL1        0.0685
      9 C          67.7521   92.3779   14.2380 C.ar    1  UNL1        0.0115
     10 C          66.9065   91.3024   13.6230 C.ar    1  UNL1        0.0152
     11 C          65.6198   90.8942   14.2770 C.ar    1  UNL1        0.0479
     12 C          65.1787   91.5615   15.5459 C.ar    1  UNL1        0.0152
     13 C          66.0243   92.6370   16.1608 C.ar    1  UNL1        0.0115
     14 N          69.0023   95.1963   16.7367 N.1     1  UNL1       -0.1908
     15 C          68.1567   94.1207   16.1218 C.1     1  UNL1        0.1004
     16 C          62.3504   85.1781   12.3051 C.ar    1  UNL1        0.0515
     17 C          62.1791   84.8719   13.7636 C.ar    1  UNL1        0.0148
     18 C          62.2923   83.4580   14.2514 C.ar    1  UNL1        0.0051
     19 C          62.5768   82.3503   13.2809 C.ar    1  UNL1        0.0715
     20 C          62.7480   82.6564   11.8225 C.ar    1  UNL1        0.0051
     21 C          62.6348   84.0704   11.3346 C.ar    1  UNL1        0.0148
     22 C          62.6899   80.9363   13.7688 C.3     1  UNL1        0.4186
     23 F          62.8032   79.5224   14.2566 F       1  UNL1       -0.1659
     24 F          61.2131   80.9081   14.0299 F       1  UNL1       -0.1659
     25 F          64.1667   80.9645   13.5077 F       1  UNL1       -0.1659
     26 C          61.2784   86.9304   10.7145 C.ar    1  UNL1        0.0710
     27 C          61.4260   86.2857    9.3682 C.ar    1  UNL1        0.0180
     28 C          60.4671   86.6241    8.2654 C.ar    1  UNL1        0.0220
     29 C          59.3607   87.6072    8.5090 C.ar    1  UNL1        0.0990
     30 N          59.2131   88.2519    9.8553 N.ar    1  UNL1       -0.2410
     31 C          60.1719   87.9135   10.9581 C.ar    1  UNL1        0.1136
@<TRIPOS>BOND
     1    14    15    3
     2    15     8    1
     3     8     9   ar
     4     9    10   ar
     5    10    11   ar
     6    11     2    1
     7     2     3    1
     8     3     4    1
     9     4     5    1
    10     5     1    1
    11     1    16    1
    12    16    17   ar
    13    17    18   ar
    14    18    19   ar
    15    19    22    1
    16    22    23    1
    17    22    24    1
    18    22    25    1
    19    19    20   ar
    20    20    21   ar
    21     1    26    1
    22    26    27   ar
    23    27    28   ar
    24    28    29   ar
    25    29    30   ar
    26    30    31   ar
    27     5     6    1
    28     6     7    1
    29    11    12   ar
    30    12    13   ar
    31    13     8   ar
    32     7     2    1
    33    21    16   ar
    34    31    26   ar
@<TRIPOS>MOLECULE
*****
 31 34 0 0 0
SMALL
GASTEIGER

@<TRIPOS>ATOM
      1 N          62.5782   84.1967   12.3066 N.pl3   1  UNL1       -0.2872
      2 N          60.8416   87.1448    9.3838 N.pl3   1  UNL1       -0.3074
      3 C          60.6872   87.3712   10.8585 C.3     1  UNL1        0.0925
      4 C          61.2661   86.3885   11.8328 C.3     1  UNL1        0.0415
      5 C          61.9993   85.1794   11.3323 C.3     1  UNL1        0.0807
      6 C          62.1536   84.9531    9.8576 C.3     1  UNL1        0.0415
      7 C          61.5748   85.9358    8.8833 C.3     1  UNL1        0.0925
      8 C          59.1050   90.0930    6.4610 C.ar    1  UNL1        0.0685
      9 C          58.8015   88.6307    6.3210 C.ar    1  UNL1        0.0115
     10 C          59.3804   87.6480    7.2953 C.ar    1  UNL1        0.0152
     11 C          60.2627   88.1275    8.4095 C.ar    1  UNL1        0.0479
     12 C          60.5662   89.5898    8.5494 C.ar    1  UNL1        0.0152
     13 C          59.9873   90.5725    7.5752 C.ar    1  UNL1        0.0115
     14 N          57.9472   92.0584    4.5124 N.1     1  UNL1       -0.1908
     15 C          58.5261   91.0757    5.4867 C.1     1  UNL1        0.1004
     16 C          62.6857   82.7473   11.9355 C.ar    1  UNL1        0.0515
     17 C          63.2465   82.3544   10.6009 C.ar    1  UNL1        0.0148
     18 C          63.3540   80.9050   10.2298 C.ar    1  UNL1        0.0051
     19 C          62.9006   79.8485   11.1933 C.ar    1  UNL1        0.0715
     20 C          62.3398   80.2414   12.5278 C.ar    1  UNL1        0.0051
     21 C          62.2323   81.6909   12.8990 C.ar    1  UNL1        0.0148
     22 C          63.0081   78.3991   10.8222 C.3     1  UNL1        0.4186
     23 F          63.1156   76.9497   10.4511 F       1  UNL1       -0.1659
     24 F          63.3158   78.7846    9.4056 F       1  UNL1       -0.1659
     25 F          62.7005   78.0136   12.2387 F       1  UNL1       -0.1659
     26 C          63.0496   84.6634   13.6519 C.ar    1  UNL1        0.0710
     27 C          64.4004   85.2998   13.7940 C.ar    1  UNL1        0.0180
     28 C          64.8718   85.7664   15.1395 C.ar    1  UNL1        0.0220
     29 C          63.9924   85.5967   16.3427 C.ar    1  UNL1        0.0990
     30 N          62.6415   84.9603   16.2005 N.ar    1  UNL1       -0.2410
     31 C          62.1701   84.4936   14.8552 C.ar    1  UNL1        0.1136
@<TRIPOS>BOND
     1    14    15    3
     2    15     8    1
     3     8     9   ar
     4     9    10   ar
     5    10    11   ar
     6    11     2    1
     7     2     3    1
     8     3     4    1
     9     4     5    1
    10     5     1    1
    11     1    16    1
    12    16    17   ar
    13    17    18   ar
    14    18    19   ar
    15    19    22    1
    16    22    23    1
    17    22    24    1
    18    22    25    1
    19    19    20   ar
    20    20    21   ar
    21     1    26    1
    22    26    27   ar
    23    27    28   ar
    24    28    29   ar
    25    29    30   ar
    26    30    31   ar
    27     5     6    1
    28     6     7    1
    29    11    12   ar
    30    12    13   ar
    31    13     8   ar
    32     7     2    1
    33    21    16   ar
    34    31    26   ar
@<TRIPOS>MOLECULE
*****
 31 34 0 0 0
SMALL
GASTEIGER

@<TRIPOS>ATOM
      1 N          62.5857   86.4121   12.4497 N.pl3   1  UNL1       -0.2872
      2 N          65.0782   89.7906   14.0693 N.pl3   1  UNL1       -0.3074
      3 C          64.2058   90.0106   12.8691 C.3     1  UNL1        0.0925
      4 C          63.3750   88.8844   12.3293 C.3     1  UNL1        0.0415
      5 C          63.4165   87.5383   12.9896 C.3     1  UNL1        0.0807
      6 C          64.2889   87.3183   14.1898 C.3     1  UNL1        0.0415
      7 C          65.1197   88.4444   14.7297 C.3     1  UNL1        0.0925
      8 C          67.5707   93.1691   15.6890 C.ar    1  UNL1        0.0685
      9 C          68.0892   92.3289   14.5597 C.ar    1  UNL1        0.0115
     10 C          67.2584   91.2028   14.0198 C.ar    1  UNL1        0.0152
     11 C          65.9090   90.9167   14.6092 C.ar    1  UNL1        0.0479
     12 C          65.3905   91.7569   15.7385 C.ar    1  UNL1        0.0152
     13 C          66.2214   92.8830   16.2784 C.ar    1  UNL1        0.0115
     14 N          69.2324   95.4214   16.7687 N.1     1  UNL1       -0.1908
     15 C          68.4016   94.2952   16.2289 C.1     1  UNL1        0.1004
     16 C          61.7551   86.6166   11.2175 C.ar    1  UNL1        0.0515
     17 C          60.5814   87.5500   11.2505 C.ar    1  UNL1        0.0148
     18 C          59.7509   87.7545   10.0183 C.ar    1  UNL1        0.0051
     19 C          60.0940   87.0256    8.7530 C.ar    1  UNL1        0.0715
     20 C          61.2677   86.0921    8.7200 C.ar    1  UNL1        0.0051
     21 C          62.0983   85.8876    9.9523 C.ar    1  UNL1        0.0148
     22 C          59.2634   87.2301    7.5208 C.3     1  UNL1        0.4186
     23 F          58.4329   87.4346    6.2886 F       1  UNL1       -0.1659
     24 F          59.4286   85.7814    7.1689 F       1  UNL1       -0.1659
     25 F          59.0983   88.6788    7.8726 F       1  UNL1       -0.1659
     26 C          62.5853   85.0815   13.1420 C.ar    1  UNL1        0.0710
     27 C          62.8179   83.8262   12.3545 C.ar    1  UNL1        0.0180
     28 C          62.8175   82.4955   13.0469 C.ar    1  UNL1        0.0220
     29 C          62.5847   82.4202   14.5268 C.ar    1  UNL1        0.0990
     30 N          62.3522   83.6754   15.3143 N.ar    1  UNL1       -0.2410
     31 C          62.3525   85.0061   14.6220 C.ar    1  UNL1        0.1136
@<TRIPOS>BOND
     1    14    15    3
     2    15     8    1
     3     8     9   ar
     4     9    10   ar
     5    10    11   ar
     6    11     2    1
     7     2     3    1
     8     3     4    1
     9     4     5    1
    10     5     1    1
    11     1    16    1
    12    16    17   ar
    13    17    18   ar
    14    18    19   ar
    15    19    22    1
    16    22    23    1
    17    22    24    1
    18    22    25    1
    19    19    20   ar
    20    20    21   ar
    21     1    26    1
    22    26    27   ar
    23    27    28   ar
    24    28    29   ar
    25    29    30   ar
    26    30    31   ar
    27     5     6    1
    28     6     7    1
    29    11    12   ar
    30    12    13   ar
    31    13     8   ar
    32     7     2    1
    33    21    16   ar
    34    31    26   ar
@<TRIPOS>MOLECULE
*****
 31 34 0 0 0
SMALL
GASTEIGER

@<TRIPOS>ATOM
      1 N          62.5866   86.3841   12.4579 N.pl3   1  UNL1       -0.2872
      2 N          65.0734   89.7716   14.0675 N.pl3   1  UNL1       -0.3074
      3 C          65.0790   88.4417   14.7610 C.3     1  UNL1        0.0925
      4 C          64.2501   87.3125   14.2245 C.3     1  UNL1        0.0415
      5 C          63.4156   87.5133   12.9944 C.3     1  UNL1        0.0807
      6 C          63.4099   88.8433   12.3009 C.3     1  UNL1        0.0415
      7 C          64.2389   89.9725   12.8374 C.3     1  UNL1        0.0925
      8 C          67.5602   93.1591   15.6771 C.ar    1  UNL1        0.0685
      9 C          68.0787   92.3186   14.5481 C.ar    1  UNL1        0.0115
     10 C          67.2498   91.1895   14.0116 C.ar    1  UNL1        0.0152
     11 C          65.9023   90.9008   14.6040 C.ar    1  UNL1        0.0479
     12 C          65.3838   91.7413   15.7330 C.ar    1  UNL1        0.0152
     13 C          66.2127   92.8705   16.2695 C.ar    1  UNL1        0.0115
     14 N          69.2180   95.4175   16.7502 N.1     1  UNL1       -0.1908
     15 C          68.3891   94.2883   16.2136 C.1     1  UNL1        0.1004
     16 C          61.7561   86.5834   11.2249 C.ar    1  UNL1        0.0515
     17 C          62.1163   85.8713    9.9547 C.ar    1  UNL1        0.0148
     18 C          61.2857   86.0706    8.7217 C.ar    1  UNL1        0.0051
     19 C          60.0949   86.9820    8.7587 C.ar    1  UNL1        0.0715
     20 C          59.7347   87.6941   10.0288 C.ar    1  UNL1        0.0051
     21 C          60.5653   87.4949   11.2619 C.ar    1  UNL1        0.0148
     22 C          59.2643   87.1813    7.5256 C.3     1  UNL1        0.4186
     23 F          58.4338   87.3805    6.2925 F       1  UNL1       -0.1659
     24 F          59.0451   88.6158    7.9050 F       1  UNL1       -0.1659
     25 F          59.4835   85.7467    7.1462 F       1  UNL1       -0.1659
     26 C          62.5883   85.0557   13.1544 C.ar    1  UNL1        0.0710
     27 C          62.7806   83.7950   12.3646 C.ar    1  UNL1        0.0180
     28 C          62.7822   82.4665   13.0612 C.ar    1  UNL1        0.0220
     29 C          62.5916   82.3987   14.5474 C.ar    1  UNL1        0.0990
     30 N          62.3993   83.6594   15.3372 N.ar    1  UNL1       -0.2410
     31 C          62.3976   84.9878   14.6407 C.ar    1  UNL1        0.1136
@<TRIPOS>BOND
     1    14    15    3
     2    15     8    1
     3     8     9   ar
     4     9    10   ar
     5    10    11   ar
     6    11     2    1
     7     2     3    1
     8     3     4    1
     9     4     5    1
    10     5     1    1
    11     1    16    1
    12    16    17   ar
    13    17    18   ar
    14    18    19   ar
    15    19    22    1
    16    22    23    1
    17    22    24    1
    18    22    25    1
    19    19    20   ar
    20    20    21   ar
    21     1    26    1
    22    26    27   ar
    23    27    28   ar
    24    28    29   ar
    25    29    30   ar
    26    30    31   ar
    27     5     6    1
    28     6     7    1
    29    11    12   ar
    30    12    13   ar
    31    13     8   ar
    32     7     2    1
    33    21    16   ar
    34    31    26   ar
@<TRIPOS>MOLECULE
*****
 31 34 0 0 0
SMALL
GASTEIGER

@<TRIPOS>ATOM
      1 N          62.4829   88.8013   12.4147 N.pl3   1  UNL1       -0.2872
      2 N          62.7202   84.3552   11.7617 N.pl3   1  UNL1       -0.3074
      3 C          63.4347   84.9820   12.9221 C.3     1  UNL1        0.0925
      4 C          63.3556   86.4640   13.1397 C.3     1  UNL1        0.0415
      5 C          62.5620   87.3193   12.1970 C.3     1  UNL1        0.0807
      6 C          61.8474   86.6925   11.0367 C.3     1  UNL1        0.0415
      7 C          61.9265   85.2105   10.8190 C.3     1  UNL1        0.0925
      8 C          62.9575   79.9092   11.1086 C.ar    1  UNL1        0.0685
      9 C          62.4514   80.4497   12.4131 C.ar    1  UNL1        0.0115
     10 C          62.3723   81.9317   12.6308 C.ar    1  UNL1        0.0152
     11 C          62.7993   82.8732   11.5440 C.ar    1  UNL1        0.0479
     12 C          63.3053   82.3327   10.2395 C.ar    1  UNL1        0.0152
     13 C          63.3844   80.8507   10.0218 C.ar    1  UNL1        0.0115
     14 N          63.1157   76.9452   10.6732 N.1     1  UNL1       -0.1908
     15 C          63.0366   78.4272   10.8909 C.1     1  UNL1        0.1004
     16 C          63.6466   89.5346   13.0130 C.ar    1  UNL1        0.0515
     17 C          64.2773   89.0351   14.2790 C.ar    1  UNL1        0.0148
     18 C          65.4410   89.7684   14.8772 C.ar    1  UNL1        0.0051
     19 C          65.9741   91.0013   14.2095 C.ar    1  UNL1        0.0715
     20 C          65.3434   91.5009   12.9436 C.ar    1  UNL1        0.0051
     21 C          64.1796   90.7675   12.3453 C.ar    1  UNL1        0.0148
     22 C          67.1378   91.7347   14.8078 C.3     1  UNL1        0.4186
     23 F          68.3015   92.4680   15.4061 F       1  UNL1       -0.1659
     24 F          67.9589   91.4242   13.5915 F       1  UNL1       -0.1659
     25 F          66.3168   92.0451   16.0241 F       1  UNL1       -0.1659
     26 C          61.2400   89.5499   12.0342 C.ar    1  UNL1        0.0710
     27 C          59.9798   89.3631   12.8260 C.ar    1  UNL1        0.0180
     28 C          58.7370   90.1118   12.4454 C.ar    1  UNL1        0.0220
     29 C          58.7544   91.0473   11.2730 C.ar    1  UNL1        0.0990
     30 N          60.0146   91.2342   10.4812 N.ar    1  UNL1       -0.2410
     31 C          61.2574   90.4855   10.8618 C.ar    1  UNL1        0.1136
@<TRIPOS>BOND
     1    14    15    3
     2    15     8    1
     3     8     9   ar
     4     9    10   ar
     5    10    11   ar
     6    11     2    1
     7     2     3    1
     8     3     4    1
     9     4     5    1
    10     5     1    1
    11     1    16    1
    12    16    17   ar
    13    17    18   ar
    14    18    19   ar
    15    19    22    1
    16    22    23    1
    17    22    24    1
    18    22    25    1
    19    19    20   ar
    20    20    21   ar
    21     1    26    1
    22    26    27   ar
    23    27    28   ar
    24    28    29   ar
    25    29    30   ar
    26    30    31   ar
    27     5     6    1
    28     6     7    1
    29    11    12   ar
    30    12    13   ar
    31    13     8   ar
    32     7     2    1
    33    21    16   ar
    34    31    26   ar
@<TRIPOS>MOLECULE
*****
 31 34 0 0 0
SMALL
GASTEIGER

@<TRIPOS>ATOM
      1 N          64.8847   90.7022   13.8314 N.pl3   1  UNL1       -0.2872
      2 N          63.7089   86.3682   13.5427 N.pl3   1  UNL1       -0.3074
      3 C          64.5563   86.8408   14.6866 C.3     1  UNL1        0.0925
      4 C          64.9482   88.2855   14.7828 C.3     1  UNL1        0.0415
      5 C          64.4928   89.2575   13.7352 C.3     1  UNL1        0.0807
      6 C          63.6454   88.7849   12.5913 C.3     1  UNL1        0.0415
      7 C          63.2535   87.3402   12.4951 C.3     1  UNL1        0.0925
      8 C          62.5330   82.0341   13.2540 C.ar    1  UNL1        0.0685
      9 C          62.8966   82.7967   12.0146 C.ar    1  UNL1        0.0115
     10 C          63.2886   84.2414   12.1108 C.ar    1  UNL1        0.0152
     11 C          63.3169   84.9235   13.4465 C.ar    1  UNL1        0.0479
     12 C          62.9533   84.1608   14.6859 C.ar    1  UNL1        0.0152
     13 C          62.5614   82.7161   14.5896 C.ar    1  UNL1        0.0115
     14 N          61.7491   79.1447   13.0615 N.1     1  UNL1       -0.1908
     15 C          62.1411   80.5894   13.1577 C.1     1  UNL1        0.1004
     16 C          65.4563   91.4055   12.6362 C.ar    1  UNL1        0.0515
     17 C          64.5471   91.8947   11.5480 C.ar    1  UNL1        0.0148
     18 C          65.1186   92.5980   10.3528 C.ar    1  UNL1        0.0051
     19 C          66.5994   92.8121   10.2456 C.ar    1  UNL1        0.0715
     20 C          67.5086   92.3229   11.3337 C.ar    1  UNL1        0.0051
     21 C          66.9370   91.6196   12.5290 C.ar    1  UNL1        0.0148
     22 C          67.1709   93.5154    9.0503 C.3     1  UNL1        0.4186
     23 F          67.7424   94.2188    7.8550 F       1  UNL1       -0.1659
     24 F          68.1095   92.3676    8.8236 F       1  UNL1       -0.1659
     25 F          66.2323   94.6633    9.2769 F       1  UNL1       -0.1659
     26 C          64.7051   91.4436   15.1229 C.ar    1  UNL1        0.0710
     27 C          65.8347   92.2543   15.6857 C.ar    1  UNL1        0.0180
     28 C          65.6551   92.9958   16.9773 C.ar    1  UNL1        0.0220
     29 C          64.3459   92.9264   17.7060 C.ar    1  UNL1        0.0990
     30 N          63.2163   92.1157   17.1433 N.ar    1  UNL1       -0.2410
     31 C          63.3959   91.3743   15.8518 C.ar    1  UNL1        0.1136
@<TRIPOS>BOND
     1    14    15    3
     2    15     8    1
     3     8     9   ar
     4     9    10   ar
     5    10    11   ar
     6    11     2    1
     7     2     3    1
     8     3     4    1
     9     4     5    1
    10     5     1    1
    11     1    16    1
    12    16    17   ar
    13    17    18   ar
    14    18    19   ar
    15    19    22    1
    16    22    23    1
    17    22    24    1
    18    22    25    1
    19    19    20   ar
    20    20    21   ar
    21     1    26    1
    22    26    27   ar
    23    27    28   ar
    24    28    29   ar
    25    29    30   ar
    26    30    31   ar
    27     5     6    1
    28     6     7    1
    29    11    12   ar
    30    12    13   ar
    31    13     8   ar
    32     7     2    1
    33    21    16   ar
    34    31    26   ar
@<TRIPOS>MOLECULE
*****
 31 34 0 0 0
SMALL
GASTEIGER

@<TRIPOS>ATOM
      1 N          64.8647   90.7110   13.8382 N.pl3   1  UNL1       -0.2872
      2 N          63.6905   86.3764   13.5508 N.pl3   1  UNL1       -0.3074
      3 C          64.5442   86.8482   14.6903 C.3     1  UNL1        0.0925
      4 C          64.9356   88.2931   14.7861 C.3     1  UNL1        0.0415
      5 C          64.4733   89.2661   13.7424 C.3     1  UNL1        0.0807
      6 C          63.6196   88.7943   12.6029 C.3     1  UNL1        0.0415
      7 C          63.2282   87.3494   12.5071 C.3     1  UNL1        0.0925
      8 C          62.5164   82.0418   13.2634 C.ar    1  UNL1        0.0685
      9 C          62.5691   82.7174   14.6015 C.ar    1  UNL1        0.0115
     10 C          62.9605   84.1622   14.6973 C.ar    1  UNL1        0.0152
     11 C          63.2992   84.9315   13.4550 C.ar    1  UNL1        0.0479
     12 C          63.2465   84.2559   12.1168 C.ar    1  UNL1        0.0152
     13 C          62.8551   82.8110   12.0210 C.ar    1  UNL1        0.0115
     14 N          61.7337   79.1520   13.0717 N.1     1  UNL1       -0.1908
     15 C          62.1251   80.5969   13.1676 C.1     1  UNL1        0.1004
     16 C          65.4281   91.4164   12.6404 C.ar    1  UNL1        0.0515
     17 C          66.9063   91.6473   12.5325 C.ar    1  UNL1        0.0148
     18 C          67.4698   92.3527   11.3346 C.ar    1  UNL1        0.0051
     19 C          66.5550   92.8273   10.2447 C.ar    1  UNL1        0.0715
     20 C          65.0768   92.5965   10.3526 C.ar    1  UNL1        0.0051
     21 C          64.5133   91.8910   11.5504 C.ar    1  UNL1        0.0148
     22 C          67.1185   93.5328    9.0468 C.3     1  UNL1        0.4186
     23 F          67.6820   94.2382    7.8490 F       1  UNL1       -0.1659
     24 F          66.1709   94.6733    9.2726 F       1  UNL1       -0.1659
     25 F          68.0662   92.3923    8.8210 F       1  UNL1       -0.1659
     26 C          64.6926   91.4504   15.1319 C.ar    1  UNL1        0.0710
     27 C          65.8347   92.2368   15.7040 C.ar    1  UNL1        0.0180
     28 C          65.6626   92.9762   16.9977 C.ar    1  UNL1        0.0220
     29 C          64.3484   92.9293   17.7193 C.ar    1  UNL1        0.0990
     30 N          63.2063   92.1430   17.1472 N.ar    1  UNL1       -0.2410
     31 C          63.3784   91.4035   15.8536 C.ar    1  UNL1        0.1136
@<TRIPOS>BOND
     1    14    15    3
     2    15     8    1
     3     8     9   ar
     4     9    10   ar
     5    10    11   ar
     6    11     2    1
     7     2     3    1
     8     3     4    1
     9     4     5    1
    10     5     1    1
    11     1    16    1
    12    16    17   ar
    13    17    18   ar
    14    18    19   ar
    15    19    22    1
    16    22    23    1
    17    22    24    1
    18    22    25    1
    19    19    20   ar
    20    20    21   ar
    21     1    26    1
    22    26    27   ar
    23    27    28   ar
    24    28    29   ar
    25    29    30   ar
    26    30    31   ar
    27     5     6    1
    28     6     7    1
    29    11    12   ar
    30    12    13   ar
    31    13     8   ar
    32     7     2    1
    33    21    16   ar
    34    31    26   ar
