@<TRIPOS>MOLECULE
*****
 40 45 0 0 0
SMALL
GASTEIGER

@<TRIPOS>ATOM
      1 N          65.3291   92.3525   12.2067 N.3     1  UNL1       -0.2641
      2 C          66.3434   92.6821   11.1520 C.3     1  UNL1        0.0981
      3 C          67.3135   91.6350   10.6910 C.3     1  UNL1        0.0224
      4 C          68.3278   91.9647    9.6363 C.3     1  UNL1        0.0065
      5 C          68.3720   93.3415    9.0425 C.3     1  UNL1        0.0277
      6 C          67.4019   94.3885    9.5034 C.ar    1  UNL1       -0.0073
      7 C          67.4461   95.7653    8.9096 C.ar    1  UNL1       -0.0015
      8 C          66.4760   96.8124    9.3706 C.ar    1  UNL1        0.0203
      9 C          65.4617   96.4828   10.4254 C.ar    1  UNL1        0.0985
     10 N          65.4175   95.1060   11.0192 N.ar    1  UNL1       -0.2471
     11 C          66.3876   94.0589   10.5582 C.ar    1  UNL1        0.0695
     12 C          65.7634   92.1528   13.6286 C.3     1  UNL1        0.0888
     13 C          62.9746   86.8149   16.9422 C.ar    1  UNL1       -0.0003
     14 C          63.8692   86.3032   15.8523 C.ar    1  UNL1       -0.0003
     15 C          64.6059   87.2685   14.9716 C.ar    1  UNL1       -0.0045
     16 C          64.4480   88.7454   15.1808 C.ar    1  UNL1       -0.0234
     17 C          63.5534   89.2571   16.2707 C.ar    1  UNL1       -0.0103
     18 C          62.8167   88.2919   17.1514 C.ar    1  UNL1       -0.0032
     19 C          63.3955   90.7341   16.4799 C.3     1  UNL1        0.0953
     20 N          64.1322   91.6993   15.5992 N.3     1  UNL1       -0.2934
     21 C          65.0267   91.1876   14.5093 C.3     1  UNL1        0.0748
     22 C          65.1847   89.7107   14.3001 C.3     1  UNL1        0.0432
     23 H          64.7124   92.2727   16.2115 H       1  UNL1        0.1236
     24 C          63.8805   92.2225   11.8397 C.3     1  UNL1        0.0994
     25 C          63.3373   90.8997   11.3870 C.ar    1  UNL1       -0.0062
     26 C          62.8279   90.7380    9.9854 C.ar    1  UNL1       -0.0032
     27 C          62.2846   89.4152    9.5328 C.ar    1  UNL1       -0.0032
     28 C          62.2508   88.2539   10.4816 C.ar    1  UNL1       -0.0064
     29 C          62.7603   88.4155   11.8831 C.ar    1  UNL1       -0.0032
     30 C          63.3035   89.7384   12.3359 C.ar    1  UNL1       -0.0032
     31 C          61.7076   86.9311   10.0289 C.3     1  UNL1        0.0956
     32 N          61.6205   85.7861   10.9941 N.3     1  UNL1       -0.2937
     33 H          60.7451   85.3011   10.7973 H       1  UNL1        0.1236
     34 C          62.6978   84.7425   11.0188 C.3     1  UNL1        0.0689
     35 C          62.7044   83.6969   12.0943 C.3     1  UNL1        0.0207
     36 C          62.8306   82.2473   11.7303 C.3     1  UNL1        0.0335
     37 C          62.8373   81.2017   12.8058 C.3     1  UNL1        0.1422
     38 O          62.7178   81.6058   14.2454 O.3     1  UNL1       -0.3538
     39 C          62.5915   83.0555   14.6095 C.3     1  UNL1        0.1422
     40 C          62.5849   84.1011   13.5340 C.3     1  UNL1        0.0335
@<TRIPOS>BOND
     1    13    14   ar
     2    14    15   ar
     3    15    16   ar
     4    16    17   ar
     5    17    18   ar
     6    17    19    1
     7    19    20    1
     8    20    21    1
     9    21    12    1
    10    12     1    1
    11     1    24    1
    12    24    25    1
    13    25    26   ar
    14    26    27   ar
    15    27    28   ar
    16    28    31    1
    17    31    32    1
    18    32    34    1
    19    34    35    1
    20    35    36    1
    21    36    37    1
    22    37    38    1
    23    38    39    1
    24    39    40    1
    25    28    29   ar
    26    29    30   ar
    27     2     1    1
    28     2     3    1
    29     3     4    1
    30     4     5    1
    31     5     6    1
    32     6     7   ar
    33     7     8   ar
    34     8     9   ar
    35     9    10   ar
    36    10    11   ar
    37    21    22    1
    38    18    13   ar
    39    30    25   ar
    40    11     2    1
    41    22    16    1
    42    40    35    1
    43    11     6   ar
    44    20    23    1
    45    32    33    1
@<TRIPOS>MOLECULE
*****
 40 45 0 0 0
SMALL
GASTEIGER

@<TRIPOS>ATOM
      1 N          63.5391   91.1881   13.2708 N.3     1  UNL1       -0.2641
      2 C          64.7969   91.6494   12.5962 C.3     1  UNL1        0.0981
      3 C          64.7992   91.9256   11.1217 C.3     1  UNL1        0.0224
      4 C          66.0570   92.3869   10.4471 C.3     1  UNL1        0.0065
      5 C          67.3124   92.5721   11.2468 C.3     1  UNL1        0.0277
      6 C          67.3101   92.2960   12.7212 C.ar    1  UNL1       -0.0073
      7 C          68.5656   92.4812   13.5209 C.ar    1  UNL1       -0.0015
      8 C          68.5632   92.2050   14.9953 C.ar    1  UNL1        0.0203
      9 C          67.3055   91.7437   15.6699 C.ar    1  UNL1        0.0985
     10 N          66.0500   91.5585   14.8702 N.ar    1  UNL1       -0.2471
     11 C          66.0523   91.8346   13.3959 C.ar    1  UNL1        0.0695
     12 C          62.2671   91.0682   12.4848 C.3     1  UNL1        0.0888
     13 C          60.3015   86.2307    8.0143 C.ar    1  UNL1       -0.0003
     14 C          59.6383   87.5278    7.6572 C.ar    1  UNL1       -0.0003
     15 C          59.8988   88.7548    8.4800 C.ar    1  UNL1       -0.0045
     16 C          60.8225   88.6845    9.6597 C.ar    1  UNL1       -0.0234
     17 C          61.4857   87.3874   10.0168 C.ar    1  UNL1       -0.0103
     18 C          61.2253   86.1605    9.1942 C.ar    1  UNL1       -0.0032
     19 C          62.4094   87.3172   11.1966 C.3     1  UNL1        0.0953
     20 N          62.6699   88.5441   12.0193 N.3     1  UNL1       -0.2934
     21 C          62.0066   89.8412   11.6622 C.3     1  UNL1        0.0748
     22 C          61.0830   89.9115   10.4824 C.3     1  UNL1        0.0432
     23 H          63.6759   88.7100   11.9903 H       1  UNL1        0.1236
     24 C          63.5533   90.8467   14.7313 C.3     1  UNL1        0.0994
     25 C          63.6360   89.4134   15.1658 C.ar    1  UNL1       -0.0062
     26 C          64.3299   88.4055   14.2981 C.ar    1  UNL1       -0.0032
     27 C          64.4126   86.9722   14.7325 C.ar    1  UNL1       -0.0032
     28 C          63.8014   86.5467   16.0346 C.ar    1  UNL1       -0.0064
     29 C          63.1075   87.5545   16.9023 C.ar    1  UNL1       -0.0032
     30 C          63.0248   88.9879   16.4678 C.ar    1  UNL1       -0.0032
     31 C          63.8841   85.1134   16.4690 C.3     1  UNL1        0.0956
     32 N          64.2291   84.0465   15.4728 N.3     1  UNL1       -0.2937
     33 H          64.8093   83.3643   15.9610 H       1  UNL1        0.1236
     34 C          63.1377   83.2768   14.7898 C.3     1  UNL1        0.0689
     35 C          63.3100   82.8333   13.3672 C.3     1  UNL1        0.0207
     36 C          62.7918   81.4950   12.9310 C.3     1  UNL1        0.0335
     37 C          62.9640   81.0514   11.5084 C.3     1  UNL1        0.1422
     38 O          63.6545   81.9461   10.5222 O.3     1  UNL1       -0.3538
     39 C          64.1728   83.2844   10.9585 C.3     1  UNL1        0.1422
     40 C          64.0005   83.7280   12.3810 C.3     1  UNL1        0.0335
@<TRIPOS>BOND
     1    13    14   ar
     2    14    15   ar
     3    15    16   ar
     4    16    17   ar
     5    17    18   ar
     6    17    19    1
     7    19    20    1
     8    20    21    1
     9    21    12    1
    10    12     1    1
    11     1    24    1
    12    24    25    1
    13    25    26   ar
    14    26    27   ar
    15    27    28   ar
    16    28    31    1
    17    31    32    1
    18    32    34    1
    19    34    35    1
    20    35    36    1
    21    36    37    1
    22    37    38    1
    23    38    39    1
    24    39    40    1
    25    28    29   ar
    26    29    30   ar
    27     2     1    1
    28     2     3    1
    29     3     4    1
    30     4     5    1
    31     5     6    1
    32     6     7   ar
    33     7     8   ar
    34     8     9   ar
    35     9    10   ar
    36    10    11   ar
    37    21    22    1
    38    18    13   ar
    39    30    25   ar
    40    11     2    1
    41    22    16    1
    42    40    35    1
    43    11     6   ar
    44    20    23    1
    45    32    33    1
@<TRIPOS>MOLECULE
*****
 40 45 0 0 0
SMALL
GASTEIGER

@<TRIPOS>ATOM
      1 N          61.9447   87.5203   11.1513 N.3     1  UNL1       -0.2641
      2 C          61.0446   87.2247    9.9883 C.3     1  UNL1        0.0981
      3 C          59.6707   87.8242    9.9320 C.3     1  UNL1        0.0224
      4 C          58.7706   87.5287    8.7691 C.3     1  UNL1        0.0065
      5 C          59.2444   86.6337    7.6624 C.3     1  UNL1        0.0277
      6 C          60.6182   86.0343    7.7187 C.ar    1  UNL1       -0.0073
      7 C          61.0919   85.1393    6.6121 C.ar    1  UNL1       -0.0015
      8 C          62.4658   84.5398    6.6685 C.ar    1  UNL1        0.0203
      9 C          63.3659   84.8354    7.8314 C.ar    1  UNL1        0.0985
     10 N          62.8922   85.7303    8.9380 N.ar    1  UNL1       -0.2471
     11 C          61.5184   86.3298    8.8817 C.ar    1  UNL1        0.0695
     12 C          63.0882   86.6021   11.4670 C.3     1  UNL1        0.0888
     13 C          62.2413   80.1408   13.6543 C.ar    1  UNL1       -0.0003
     14 C          62.6495   80.1211   12.2110 C.ar    1  UNL1       -0.0003
     15 C          62.9006   81.4094   11.4849 C.ar    1  UNL1       -0.0045
     16 C          62.7434   82.7175   12.2021 C.ar    1  UNL1       -0.0234
     17 C          62.3352   82.7372   13.6453 C.ar    1  UNL1       -0.0103
     18 C          62.0841   81.4489   14.3714 C.ar    1  UNL1       -0.0032
     19 C          62.1780   84.0453   14.3624 C.3     1  UNL1        0.0953
     20 N          62.4290   85.3336   13.6363 N.3     1  UNL1       -0.2934
     21 C          62.8372   85.3138   12.1931 C.3     1  UNL1        0.0748
     22 C          62.9944   84.0058   11.4759 C.3     1  UNL1        0.0432
     23 H          63.1681   85.8190   14.1448 H       1  UNL1        0.1236
     24 C          61.7015   88.7339   11.9985 C.3     1  UNL1        0.0994
     25 C          62.8414   89.6423   12.3524 C.ar    1  UNL1       -0.0062
     26 C          63.2468   90.7384   11.4120 C.ar    1  UNL1       -0.0032
     27 C          64.3867   91.6468   11.7658 C.ar    1  UNL1       -0.0032
     28 C          65.1213   91.4592   13.0601 C.ar    1  UNL1       -0.0064
     29 C          64.7160   90.3633   14.0006 C.ar    1  UNL1       -0.0032
     30 C          63.5760   89.4548   13.6467 C.ar    1  UNL1       -0.0032
     31 C          66.2613   92.3677   13.4140 C.3     1  UNL1        0.0956
     32 N          66.8816   93.2377   12.3613 N.3     1  UNL1       -0.2937
     33 H          66.8644   92.7051   11.4915 H       1  UNL1        0.1236
     34 C          66.2921   94.5830   12.0571 C.3     1  UNL1        0.0689
     35 C          66.3372   95.1227   10.6583 C.3     1  UNL1        0.0207
     36 C          65.5050   96.3140   10.2868 C.3     1  UNL1        0.0335
     37 C          65.5501   96.8537    8.8880 C.3     1  UNL1        0.1422
     38 O          66.4274   96.2020    7.8606 O.3     1  UNL1       -0.3538
     39 C          67.2597   95.0106    8.2320 C.3     1  UNL1        0.1422
     40 C          67.2146   94.4710    9.6309 C.3     1  UNL1        0.0335
@<TRIPOS>BOND
     1    13    14   ar
     2    14    15   ar
     3    15    16   ar
     4    16    17   ar
     5    17    18   ar
     6    17    19    1
     7    19    20    1
     8    20    21    1
     9    21    12    1
    10    12     1    1
    11     1    24    1
    12    24    25    1
    13    25    26   ar
    14    26    27   ar
    15    27    28   ar
    16    28    31    1
    17    31    32    1
    18    32    34    1
    19    34    35    1
    20    35    36    1
    21    36    37    1
    22    37    38    1
    23    38    39    1
    24    39    40    1
    25    28    29   ar
    26    29    30   ar
    27     2     1    1
    28     2     3    1
    29     3     4    1
    30     4     5    1
    31     5     6    1
    32     6     7   ar
    33     7     8   ar
    34     8     9   ar
    35     9    10   ar
    36    10    11   ar
    37    21    22    1
    38    18    13   ar
    39    30    25   ar
    40    11     2    1
    41    22    16    1
    42    40    35    1
    43    11     6   ar
    44    20    23    1
    45    32    33    1
@<TRIPOS>MOLECULE
*****
 40 45 0 0 0
SMALL
GASTEIGER

@<TRIPOS>ATOM
      1 N          63.7950   89.9238   13.6915 N.3     1  UNL1       -0.2641
      2 C          64.5059   91.0860   13.0640 C.3     1  UNL1        0.0981
      3 C          64.2794   91.4115   11.6173 C.3     1  UNL1        0.0224
      4 C          64.9902   92.5738   10.9899 C.3     1  UNL1        0.0065
      5 C          65.9276   93.4106   11.8090 C.3     1  UNL1        0.0277
      6 C          66.1541   93.0852   13.2556 C.ar    1  UNL1       -0.0073
      7 C          67.0915   93.9220   14.0748 C.ar    1  UNL1       -0.0015
      8 C          67.3180   93.5966   15.5215 C.ar    1  UNL1        0.0203
      9 C          66.6071   92.4343   16.1489 C.ar    1  UNL1        0.0985
     10 N          65.6697   91.5974   15.3298 N.ar    1  UNL1       -0.2471
     11 C          65.4432   91.9229   13.8832 C.ar    1  UNL1        0.0695
     12 C          64.5683   88.9082   14.4794 C.3     1  UNL1        0.0888
     13 C          62.3794   82.4446   13.6541 C.ar    1  UNL1       -0.0003
     14 C          62.7007   83.0295   12.3108 C.ar    1  UNL1       -0.0003
     15 C          63.2027   84.4392   12.2072 C.ar    1  UNL1       -0.0045
     16 C          63.3835   85.2640   13.4469 C.ar    1  UNL1       -0.0234
     17 C          63.0621   84.6791   14.7903 C.ar    1  UNL1       -0.0103
     18 C          62.5601   83.2695   14.8939 C.ar    1  UNL1       -0.0032
     19 C          63.2429   85.5040   16.0301 C.3     1  UNL1        0.0953
     20 N          63.7449   86.9137   15.9264 N.3     1  UNL1       -0.2934
     21 C          64.0662   87.4985   14.5830 C.3     1  UNL1        0.0748
     22 C          63.8855   86.6738   13.3433 C.3     1  UNL1        0.0432
     23 H          64.5994   86.9635   16.4812 H       1  UNL1        0.1236
     24 C          62.3108   89.7770   13.5311 C.3     1  UNL1        0.0994
     25 C          61.7134   89.6503   12.1610 C.ar    1  UNL1       -0.0062
     26 C          62.5123   89.0395   11.0480 C.ar    1  UNL1       -0.0032
     27 C          61.9149   88.9128    9.6780 C.ar    1  UNL1       -0.0032
     28 C          60.5186   89.3969    9.4209 C.ar    1  UNL1       -0.0064
     29 C          59.7198   90.0077   10.5338 C.ar    1  UNL1       -0.0032
     30 C          60.3172   90.1344   11.9040 C.ar    1  UNL1       -0.0032
     31 C          59.9212   89.2703    8.0509 C.3     1  UNL1        0.0956
     32 N          59.0352   88.1049    7.7238 N.3     1  UNL1       -0.2937
     33 H          59.0768   87.9782    6.7125 H       1  UNL1        0.1236
     34 C          59.3025   86.7635    8.3397 C.3     1  UNL1        0.0689
     35 C          60.5560   86.0158    7.9939 C.3     1  UNL1        0.0207
     36 C          61.7066   85.9951    8.9560 C.3     1  UNL1        0.0335
     37 C          62.9601   85.2473    8.6101 C.3     1  UNL1        0.1422
     38 O          63.0630   84.5203    7.3022 O.3     1  UNL1       -0.3538
     39 C          61.9124   84.5410    6.3400 C.3     1  UNL1        0.1422
     40 C          60.6589   85.2887    6.6858 C.3     1  UNL1        0.0335
@<TRIPOS>BOND
     1    13    14   ar
     2    14    15   ar
     3    15    16   ar
     4    16    17   ar
     5    17    18   ar
     6    17    19    1
     7    19    20    1
     8    20    21    1
     9    21    12    1
    10    12     1    1
    11     1    24    1
    12    24    25    1
    13    25    26   ar
    14    26    27   ar
    15    27    28   ar
    16    28    31    1
    17    31    32    1
    18    32    34    1
    19    34    35    1
    20    35    36    1
    21    36    37    1
    22    37    38    1
    23    38    39    1
    24    39    40    1
    25    28    29   ar
    26    29    30   ar
    27     2     1    1
    28     2     3    1
    29     3     4    1
    30     4     5    1
    31     5     6    1
    32     6     7   ar
    33     7     8   ar
    34     8     9   ar
    35     9    10   ar
    36    10    11   ar
    37    21    22    1
    38    18    13   ar
    39    30    25   ar
    40    11     2    1
    41    22    16    1
    42    40    35    1
    43    11     6   ar
    44    20    23    1
    45    32    33    1
@<TRIPOS>MOLECULE
*****
 40 45 0 0 0
SMALL
GASTEIGER

@<TRIPOS>ATOM
      1 N          61.7063   87.1993   11.5471 N.3     1  UNL1       -0.2641
      2 C          62.3796   86.0146   10.9201 C.3     1  UNL1        0.0981
      3 C          62.6600   86.0042    9.4465 C.3     1  UNL1        0.0224
      4 C          63.3333   84.8196    8.8195 C.3     1  UNL1        0.0065
      5 C          63.7262   83.6452    9.6660 C.3     1  UNL1        0.0277
      6 C          63.4458   83.6555   11.1395 C.ar    1  UNL1       -0.0073
      7 C          63.8387   82.4812   11.9859 C.ar    1  UNL1       -0.0015
      8 C          63.5582   82.4915   13.4595 C.ar    1  UNL1        0.0203
      9 C          62.8850   83.6762   14.0865 C.ar    1  UNL1        0.0985
     10 N          62.4921   84.8505   13.2401 N.ar    1  UNL1       -0.2471
     11 C          62.7725   84.8402   11.7666 C.ar    1  UNL1        0.0695
     12 C          62.4422   88.0354   12.5518 C.3     1  UNL1        0.0888
     13 C          66.0872   93.8111   11.7734 C.ar    1  UNL1       -0.0003
     14 C          66.3004   93.2790   13.1596 C.ar    1  UNL1       -0.0003
     15 C          65.6141   92.0174   13.5924 C.ar    1  UNL1       -0.0045
     16 C          64.7145   91.2880   12.6392 C.ar    1  UNL1       -0.0234
     17 C          64.5012   91.8201   11.2531 C.ar    1  UNL1       -0.0103
     18 C          65.1875   93.0817   10.8202 C.ar    1  UNL1       -0.0032
     19 C          63.6016   91.0907   10.2999 C.3     1  UNL1        0.0953
     20 N          62.9152   89.8291   10.7328 N.3     1  UNL1       -0.2934
     21 C          63.1285   89.2970   12.1189 C.3     1  UNL1        0.0748
     22 C          64.0281   90.0264   13.0721 C.3     1  UNL1        0.0432
     23 H          63.2110   89.0967   10.0874 H       1  UNL1        0.1236
     24 C          60.2970   87.5478   11.1696 C.3     1  UNL1        0.0994
     25 C          60.0058   88.1377    9.8216 C.ar    1  UNL1       -0.0062
     26 C          59.4209   87.2806    8.7383 C.ar    1  UNL1       -0.0032
     27 C          59.1297   87.8705    7.3903 C.ar    1  UNL1       -0.0032
     28 C          59.4233   89.3175    7.1254 C.ar    1  UNL1       -0.0064
     29 C          60.0082   90.1745    8.2086 C.ar    1  UNL1       -0.0032
     30 C          60.2994   89.5846    9.5567 C.ar    1  UNL1       -0.0032
     31 C          59.1321   89.9073    5.7774 C.3     1  UNL1        0.0956
     32 N          59.1488   91.3955    5.5905 N.3     1  UNL1       -0.2937
     33 H          60.0300   91.7313    5.9794 H       1  UNL1        0.1236
     34 C          59.0325   91.9799    4.2138 C.3     1  UNL1        0.0689
     35 C          60.2666   92.3917    3.4672 C.3     1  UNL1        0.0207
     36 C          61.5634   91.6780    3.7101 C.3     1  UNL1        0.0335
     37 C          62.7974   92.0898    2.9635 C.3     1  UNL1        0.1422
     38 O          62.7348   93.2153    1.9739 O.3     1  UNL1       -0.3538
     39 C          61.4380   93.9290    1.7309 C.3     1  UNL1        0.1422
     40 C          60.2039   93.5172    2.4776 C.3     1  UNL1        0.0335
@<TRIPOS>BOND
     1    13    14   ar
     2    14    15   ar
     3    15    16   ar
     4    16    17   ar
     5    17    18   ar
     6    17    19    1
     7    19    20    1
     8    20    21    1
     9    21    12    1
    10    12     1    1
    11     1    24    1
    12    24    25    1
    13    25    26   ar
    14    26    27   ar
    15    27    28   ar
    16    28    31    1
    17    31    32    1
    18    32    34    1
    19    34    35    1
    20    35    36    1
    21    36    37    1
    22    37    38    1
    23    38    39    1
    24    39    40    1
    25    28    29   ar
    26    29    30   ar
    27     2     1    1
    28     2     3    1
    29     3     4    1
    30     4     5    1
    31     5     6    1
    32     6     7   ar
    33     7     8   ar
    34     8     9   ar
    35     9    10   ar
    36    10    11   ar
    37    21    22    1
    38    18    13   ar
    39    30    25   ar
    40    11     2    1
    41    22    16    1
    42    40    35    1
    43    11     6   ar
    44    20    23    1
    45    32    33    1
@<TRIPOS>MOLECULE
*****
 40 45 0 0 0
SMALL
GASTEIGER

@<TRIPOS>ATOM
      1 N          63.4724   89.5719   13.3840 N.3     1  UNL1       -0.2641
      2 C          64.0971   90.7279   12.6607 C.3     1  UNL1        0.0981
      3 C          63.7734   90.9725   11.2166 C.3     1  UNL1        0.0224
      4 C          64.3982   92.1285   10.4933 C.3     1  UNL1        0.0065
      5 C          65.3466   93.0400   11.2141 C.3     1  UNL1        0.0277
      6 C          65.6704   92.7955   12.6581 C.ar    1  UNL1       -0.0073
      7 C          66.6188   93.7070   13.3789 C.ar    1  UNL1       -0.0015
      8 C          66.9425   93.4625   14.8231 C.ar    1  UNL1        0.0203
      9 C          66.3178   92.3064   15.5463 C.ar    1  UNL1        0.0985
     10 N          65.3693   91.3949   14.8256 N.ar    1  UNL1       -0.2471
     11 C          65.0456   91.6394   13.3815 C.ar    1  UNL1        0.0695
     12 C          64.3268   88.6470   14.1993 C.3     1  UNL1        0.0888
     13 C          62.4800   82.0366   13.8224 C.ar    1  UNL1       -0.0003
     14 C          62.7292   82.5565   12.4376 C.ar    1  UNL1       -0.0003
     15 C          63.1484   83.9826   12.2361 C.ar    1  UNL1       -0.0045
     16 C          63.3184   84.8888   13.4193 C.ar    1  UNL1       -0.0234
     17 C          63.0693   84.3688   14.8040 C.ar    1  UNL1       -0.0103
     18 C          62.6501   82.9428   15.0056 C.ar    1  UNL1       -0.0032
     19 C          63.2393   85.2750   15.9873 C.3     1  UNL1        0.0953
     20 N          63.6585   86.7011   15.7857 N.3     1  UNL1       -0.2934
     21 C          63.9076   87.2210   14.4009 C.3     1  UNL1        0.0748
     22 C          63.7376   86.3149   13.2177 C.3     1  UNL1        0.0432
     23 H          64.5245   86.8302   16.3089 H       1  UNL1        0.1236
     24 C          61.9932   89.3406   13.2920 C.3     1  UNL1        0.0994
     25 C          61.3910   88.8359   12.0143 C.ar    1  UNL1       -0.0062
     26 C          62.0496   87.7149   11.2662 C.ar    1  UNL1       -0.0032
     27 C          61.4474   87.2102    9.9884 C.ar    1  UNL1       -0.0032
     28 C          60.1866   87.8265    9.4588 C.ar    1  UNL1       -0.0064
     29 C          59.5280   88.9474   10.2069 C.ar    1  UNL1       -0.0032
     30 C          60.1301   89.4522   11.4847 C.ar    1  UNL1       -0.0032
     31 C          59.5844   87.3218    8.1811 C.3     1  UNL1        0.0956
     32 N          59.0761   88.2926    7.1567 N.3     1  UNL1       -0.2937
     33 H          58.1398   88.5691    7.4522 H       1  UNL1        0.1236
     34 C          59.8343   89.5572    6.8807 C.3     1  UNL1        0.0689
     35 C          59.3470   90.5094    5.8291 C.3     1  UNL1        0.0207
     36 C          57.8811   90.8015    5.7030 C.3     1  UNL1        0.0335
     37 C          57.3938   91.7537    4.6514 C.3     1  UNL1        0.1422
     38 O          58.3724   92.4138    3.7259 O.3     1  UNL1       -0.3538
     39 C          59.8383   92.1218    3.8520 C.3     1  UNL1        0.1422
     40 C          60.3256   91.1695    4.9036 C.3     1  UNL1        0.0335
@<TRIPOS>BOND
     1    13    14   ar
     2    14    15   ar
     3    15    16   ar
     4    16    17   ar
     5    17    18   ar
     6    17    19    1
     7    19    20    1
     8    20    21    1
     9    21    12    1
    10    12     1    1
    11     1    24    1
    12    24    25    1
    13    25    26   ar
    14    26    27   ar
    15    27    28   ar
    16    28    31    1
    17    31    32    1
    18    32    34    1
    19    34    35    1
    20    35    36    1
    21    36    37    1
    22    37    38    1
    23    38    39    1
    24    39    40    1
    25    28    29   ar
    26    29    30   ar
    27     2     1    1
    28     2     3    1
    29     3     4    1
    30     4     5    1
    31     5     6    1
    32     6     7   ar
    33     7     8   ar
    34     8     9   ar
    35     9    10   ar
    36    10    11   ar
    37    21    22    1
    38    18    13   ar
    39    30    25   ar
    40    11     2    1
    41    22    16    1
    42    40    35    1
    43    11     6   ar
    44    20    23    1
    45    32    33    1
@<TRIPOS>MOLECULE
*****
 40 45 0 0 0
SMALL
GASTEIGER

@<TRIPOS>ATOM
      1 N          61.9924   87.2486   10.9407 N.3     1  UNL1       -0.2641
      2 C          61.0648   86.9982    9.7888 C.3     1  UNL1        0.0981
      3 C          59.6981   87.6164    9.7785 C.3     1  UNL1        0.0224
      4 C          58.7704   87.3661    8.6266 C.3     1  UNL1        0.0065
      5 C          59.2095   86.4976    7.4851 C.3     1  UNL1        0.0277
      6 C          60.5761   85.8795    7.4954 C.ar    1  UNL1       -0.0073
      7 C          61.0151   85.0111    6.3539 C.ar    1  UNL1       -0.0015
      8 C          62.3818   84.3929    6.3643 C.ar    1  UNL1        0.0203
      9 C          63.3095   84.6432    7.5161 C.ar    1  UNL1        0.0985
     10 N          62.8705   85.5117    8.6576 N.ar    1  UNL1       -0.2471
     11 C          61.5038   86.1298    8.6473 C.ar    1  UNL1        0.0695
     12 C          63.1007   86.2815   11.2350 C.3     1  UNL1        0.0888
     13 C          62.1248   79.9673   13.7707 C.ar    1  UNL1       -0.0003
     14 C          62.5445   79.8602   12.3346 C.ar    1  UNL1       -0.0003
     15 C          62.8237   81.1017   11.5402 C.ar    1  UNL1       -0.0045
     16 C          62.6830   82.4502   12.1820 C.ar    1  UNL1       -0.0234
     17 C          62.2633   82.5572   13.6181 C.ar    1  UNL1       -0.0103
     18 C          61.9841   81.3158   14.4124 C.ar    1  UNL1       -0.0032
     19 C          62.1226   83.9058   14.2598 C.3     1  UNL1        0.0953
     20 N          62.4018   85.1471   13.4655 N.3     1  UNL1       -0.2934
     21 C          62.8215   85.0401   12.0294 C.3     1  UNL1        0.0748
     22 C          62.9622   83.6916   11.3876 C.3     1  UNL1        0.0432
     23 H          63.1449   85.6477   13.9529 H       1  UNL1        0.1236
     24 C          61.8119   88.4659   11.7982 C.3     1  UNL1        0.0994
     25 C          62.6909   89.6641   11.5942 C.ar    1  UNL1       -0.0062
     26 C          63.5234   90.1853   12.7280 C.ar    1  UNL1       -0.0032
     27 C          64.4025   91.3834   12.5241 C.ar    1  UNL1       -0.0032
     28 C          64.4491   92.0604   11.1864 C.ar    1  UNL1       -0.0064
     29 C          63.6167   91.5393   10.0526 C.ar    1  UNL1       -0.0032
     30 C          62.7376   90.3411   10.2565 C.ar    1  UNL1       -0.0032
     31 C          65.3282   93.2586   10.9824 C.3     1  UNL1        0.0956
     32 N          66.6544   93.3430   11.6782 N.3     1  UNL1       -0.2937
     33 H          67.3149   93.7342   11.0066 H       1  UNL1        0.1236
     34 C          66.7907   94.1461   12.9378 C.3     1  UNL1        0.0689
     35 C          67.0776   93.4573   14.2390 C.3     1  UNL1        0.0207
     36 C          68.4953   93.1898   14.6494 C.3     1  UNL1        0.0335
     37 C          68.7822   92.5010   15.9507 C.3     1  UNL1        0.1422
     38 O          67.6514   92.0797   16.8416 O.3     1  UNL1       -0.3538
     39 C          66.2336   92.3472   16.4312 C.3     1  UNL1        0.1422
     40 C          65.9467   93.0360   15.1300 C.3     1  UNL1        0.0335
@<TRIPOS>BOND
     1    13    14   ar
     2    14    15   ar
     3    15    16   ar
     4    16    17   ar
     5    17    18   ar
     6    17    19    1
     7    19    20    1
     8    20    21    1
     9    21    12    1
    10    12     1    1
    11     1    24    1
    12    24    25    1
    13    25    26   ar
    14    26    27   ar
    15    27    28   ar
    16    28    31    1
    17    31    32    1
    18    32    34    1
    19    34    35    1
    20    35    36    1
    21    36    37    1
    22    37    38    1
    23    38    39    1
    24    39    40    1
    25    28    29   ar
    26    29    30   ar
    27     2     1    1
    28     2     3    1
    29     3     4    1
    30     4     5    1
    31     5     6    1
    32     6     7   ar
    33     7     8   ar
    34     8     9   ar
    35     9    10   ar
    36    10    11   ar
    37    21    22    1
    38    18    13   ar
    39    30    25   ar
    40    11     2    1
    41    22    16    1
    42    40    35    1
    43    11     6   ar
    44    20    23    1
    45    32    33    1
@<TRIPOS>MOLECULE
*****
 40 45 0 0 0
SMALL
GASTEIGER

@<TRIPOS>ATOM
      1 N          64.2729   89.8691   14.1626 N.3     1  UNL1       -0.2641
      2 C          65.0273   91.1588   14.2949 C.3     1  UNL1        0.0981
      3 C          65.5467   91.5899   15.6345 C.3     1  UNL1        0.0224
      4 C          66.3011   92.8795   15.7667 C.3     1  UNL1        0.0065
      5 C          66.5362   93.7382   14.5595 C.3     1  UNL1        0.0277
      6 C          66.0168   93.3071   13.2199 C.ar    1  UNL1       -0.0073
      7 C          66.2519   94.1657   12.0127 C.ar    1  UNL1       -0.0015
      8 C          65.7325   93.7346   10.6731 C.ar    1  UNL1        0.0203
      9 C          64.9780   92.4449   10.5408 C.ar    1  UNL1        0.0985
     10 N          64.7430   91.5863   11.7481 N.ar    1  UNL1       -0.2471
     11 C          65.2623   92.0174   13.0876 C.ar    1  UNL1        0.0695
     12 C          65.0087   88.5625   14.1998 C.3     1  UNL1        0.0888
     13 C          61.9811   82.4076   14.6480 C.ar    1  UNL1       -0.0003
     14 C          62.5927   82.5559   13.2863 C.ar    1  UNL1       -0.0003
     15 C          63.3206   83.8166   12.9244 C.ar    1  UNL1       -0.0045
     16 C          63.4368   84.9289   13.9241 C.ar    1  UNL1       -0.0234
     17 C          62.8252   84.7805   15.2857 C.ar    1  UNL1       -0.0103
     18 C          62.0974   83.5199   15.6476 C.ar    1  UNL1       -0.0032
     19 C          62.9415   85.8929   16.2853 C.3     1  UNL1        0.0953
     20 N          63.6693   87.1535   15.9234 N.3     1  UNL1       -0.2934
     21 C          64.2809   87.3018   14.5618 C.3     1  UNL1        0.0748
     22 C          64.1647   86.1896   13.5621 C.3     1  UNL1        0.0432
     23 H          64.4257   87.2612   16.5992 H       1  UNL1        0.1236
     24 C          62.7825   89.8860   13.9932 C.3     1  UNL1        0.0994
     25 C          62.1801   89.6942   12.6330 C.ar    1  UNL1       -0.0062
     26 C          60.7485   90.0685   12.3872 C.ar    1  UNL1       -0.0032
     27 C          60.1461   89.8768   11.0270 C.ar    1  UNL1       -0.0032
     28 C          60.9752   89.3107    9.9125 C.ar    1  UNL1       -0.0064
     29 C          62.4068   88.9363   10.1582 C.ar    1  UNL1       -0.0032
     30 C          63.0093   89.1281   11.5185 C.ar    1  UNL1       -0.0032
     31 C          60.3728   89.1189    8.5523 C.3     1  UNL1        0.0956
     32 N          59.1673   88.2426    8.3826 N.3     1  UNL1       -0.2937
     33 H          58.6600   88.5936    7.5703 H       1  UNL1        0.1236
     34 C          59.3360   86.7655    8.1828 C.3     1  UNL1        0.0689
     35 C          60.6449   86.1093    8.5085 C.3     1  UNL1        0.0207
     36 C          61.5340   85.6203    7.4038 C.3     1  UNL1        0.0335
     37 C          62.8430   84.9641    7.7295 C.3     1  UNL1        0.1422
     38 O          63.2628   84.7968    9.1598 O.3     1  UNL1       -0.3538
     39 C          62.3737   85.2859   10.2645 C.3     1  UNL1        0.1422
     40 C          61.0647   85.9421    9.9388 C.3     1  UNL1        0.0335
@<TRIPOS>BOND
     1    13    14   ar
     2    14    15   ar
     3    15    16   ar
     4    16    17   ar
     5    17    18   ar
     6    17    19    1
     7    19    20    1
     8    20    21    1
     9    21    12    1
    10    12     1    1
    11     1    24    1
    12    24    25    1
    13    25    26   ar
    14    26    27   ar
    15    27    28   ar
    16    28    31    1
    17    31    32    1
    18    32    34    1
    19    34    35    1
    20    35    36    1
    21    36    37    1
    22    37    38    1
    23    38    39    1
    24    39    40    1
    25    28    29   ar
    26    29    30   ar
    27     2     1    1
    28     2     3    1
    29     3     4    1
    30     4     5    1
    31     5     6    1
    32     6     7   ar
    33     7     8   ar
    34     8     9   ar
    35     9    10   ar
    36    10    11   ar
    37    21    22    1
    38    18    13   ar
    39    30    25   ar
    40    11     2    1
    41    22    16    1
    42    40    35    1
    43    11     6   ar
    44    20    23    1
    45    32    33    1
@<TRIPOS>MOLECULE
*****
 40 45 0 0 0
SMALL
GASTEIGER

@<TRIPOS>ATOM
      1 N          64.2353   91.7937   13.1560 N.3     1  UNL1       -0.2641
      2 C          65.6891   91.8997   12.8025 C.3     1  UNL1        0.0981
      3 C          66.1219   91.7988   11.3697 C.3     1  UNL1        0.0224
      4 C          67.5758   91.9048   11.0162 C.3     1  UNL1        0.0065
      5 C          68.5969   92.1117   12.0953 C.3     1  UNL1        0.0277
      6 C          68.1642   92.2126   13.5280 C.ar    1  UNL1       -0.0073
      7 C          69.1853   92.4195   14.6071 C.ar    1  UNL1       -0.0015
      8 C          68.7525   92.5204   16.0398 C.ar    1  UNL1        0.0203
      9 C          67.2986   92.4144   16.3933 C.ar    1  UNL1        0.0985
     10 N          66.2775   92.2075   15.3142 N.ar    1  UNL1       -0.2471
     11 C          66.7102   92.1066   13.8816 C.ar    1  UNL1        0.0695
     12 C          63.8240   91.5781   14.5824 C.3     1  UNL1        0.0888
     13 C          63.8759   84.8452   15.9662 C.ar    1  UNL1       -0.0003
     14 C          64.5103   85.0760   14.6268 C.ar    1  UNL1       -0.0003
     15 C          64.6268   86.4688   14.0821 C.ar    1  UNL1       -0.0045
     16 C          64.1089   87.6307   14.8769 C.ar    1  UNL1       -0.0234
     17 C          63.4745   87.3999   16.2164 C.ar    1  UNL1       -0.0103
     18 C          63.3579   86.0072   16.7610 C.ar    1  UNL1       -0.0032
     19 C          62.9565   88.5618   17.0112 C.3     1  UNL1        0.0953
     20 N          63.0730   89.9546   16.4665 N.3     1  UNL1       -0.2934
     21 C          63.7075   90.1854   15.1270 C.3     1  UNL1        0.0748
     22 C          64.2254   89.0235   14.3322 C.3     1  UNL1        0.0432
     23 H          63.6133   90.4917   17.1447 H       1  UNL1        0.1236
     24 C          63.1926   91.9032   12.0832 C.3     1  UNL1        0.0994
     25 C          62.5297   90.6667   11.5526 C.ar    1  UNL1       -0.0062
     26 C          63.0372   90.0241   10.2957 C.ar    1  UNL1       -0.0032
     27 C          62.3743   88.7876    9.7651 C.ar    1  UNL1       -0.0032
     28 C          61.2039   88.1936   10.4913 C.ar    1  UNL1       -0.0064
     29 C          60.6964   88.8361   11.7481 C.ar    1  UNL1       -0.0032
     30 C          61.3593   90.0727   12.2788 C.ar    1  UNL1       -0.0032
     31 C          60.5410   86.9571    9.9607 C.3     1  UNL1        0.0956
     32 N          61.3246   85.9829    9.1319 N.3     1  UNL1       -0.2937
     33 H          61.3534   86.3589    8.1842 H       1  UNL1        0.1236
     34 C          62.7372   85.6451    9.5070 C.3     1  UNL1        0.0689
     35 C          63.0209   84.4380   10.3509 C.3     1  UNL1        0.0207
     36 C          62.4043   84.3131   11.7126 C.3     1  UNL1        0.0335
     37 C          62.6880   83.1060   12.5566 C.3     1  UNL1        0.1422
     38 O          63.5883   82.0236   12.0388 O.3     1  UNL1       -0.3538
     39 C          64.2049   82.1485   10.6771 C.3     1  UNL1        0.1422
     40 C          63.9212   83.3556    9.8331 C.3     1  UNL1        0.0335
@<TRIPOS>BOND
     1    13    14   ar
     2    14    15   ar
     3    15    16   ar
     4    16    17   ar
     5    17    18   ar
     6    17    19    1
     7    19    20    1
     8    20    21    1
     9    21    12    1
    10    12     1    1
    11     1    24    1
    12    24    25    1
    13    25    26   ar
    14    26    27   ar
    15    27    28   ar
    16    28    31    1
    17    31    32    1
    18    32    34    1
    19    34    35    1
    20    35    36    1
    21    36    37    1
    22    37    38    1
    23    38    39    1
    24    39    40    1
    25    28    29   ar
    26    29    30   ar
    27     2     1    1
    28     2     3    1
    29     3     4    1
    30     4     5    1
    31     5     6    1
    32     6     7   ar
    33     7     8   ar
    34     8     9   ar
    35     9    10   ar
    36    10    11   ar
    37    21    22    1
    38    18    13   ar
    39    30    25   ar
    40    11     2    1
    41    22    16    1
    42    40    35    1
    43    11     6   ar
    44    20    23    1
    45    32    33    1
