@<TRIPOS>MOLECULE
*****
 42 46 0 0 0
SMALL
GASTEIGER

@<TRIPOS>ATOM
      1 N          62.0746   87.0483   10.9963 N.am    1  UNL1       -0.2734
      2 C          63.0015   86.9044   12.1669 C.2     1  UNL1        0.2438
      3 O          63.4952   85.5466   12.5702 O.2     1  UNL1       -0.2731
      4 C          63.4348   88.1183   12.9342 C.3     1  UNL1        0.1488
      5 N          62.9411   89.4761   12.5309 N.am    1  UNL1       -0.2970
      6 C          62.0143   89.6201   11.3604 C.2     1  UNL1        0.2389
      7 O          61.5207   90.9779   10.9571 O.2     1  UNL1       -0.2734
      8 C          61.5810   88.4061   10.5931 C.3     1  UNL1        0.1314
      9 C          61.1478   87.1922    9.8258 C.3     1  UNL1        0.0445
     10 C          60.2210   87.3362    8.6553 C.3     1  UNL1        0.0745
     11 N          59.7273   88.6940    8.2520 N.3     1  UNL1       -0.2688
     12 C          60.1605   89.9079    9.0192 C.3     1  UNL1        0.0745
     13 C          61.0874   89.7640   10.1898 C.3     1  UNL1        0.0445
     14 H          63.2255   90.2729   13.0345 H       1  UNL1        0.1499
     15 C          61.6414   85.8344   10.2291 C.3     1  UNL1        0.0938
     16 C          62.6682   84.9253    9.6213 C.3     1  UNL1        0.0215
     17 C          62.4314   84.8169    7.0364 C.3     1  UNL1        0.0001
     18 C          63.2116   85.2159    8.2538 C.3     1  UNL1        0.0018
     19 C          64.3617   87.9744   14.1048 C.3     1  UNL1        0.0290
     20 C          63.8351   87.4907   15.4234 C.3     1  UNL1        0.0021
     21 C          63.8463   86.0253   15.7434 C.3     1  UNL1        0.0001
     22 C          63.3197   85.5415   17.0620 C.3     1  UNL1        0.0000
     23 C          62.7819   86.5232   18.0606 C.3     1  UNL1        0.0000
     24 C          62.7706   87.9886   17.7405 C.3     1  UNL1        0.0000
     25 C          63.2972   88.4723   16.4218 C.3     1  UNL1        0.0001
     26 C          58.8004   88.8379    7.0814 C.3     1  UNL1        0.0992
     27 C          58.9973   89.9567    6.1019 C.ar    1  UNL1       -0.0059
     28 C          60.3764   90.2984    5.6209 C.ar    1  UNL1        0.0002
     29 C          60.5733   91.4173    4.6414 C.ar    1  UNL1        0.0372
     30 C          59.3911   92.1944    4.1430 C.ar    1  UNL1        0.1453
     31 C          58.0120   91.8527    4.6240 C.ar    1  UNL1        0.0372
     32 C          57.8151   90.7339    5.6034 C.ar    1  UNL1        0.0002
     33 O          59.5880   93.3133    3.1635 O.3     1  UNL1       -0.4535
     34 C          60.9109   93.4855    2.4776 C.ar    1  UNL1        0.1453
     35 C          61.9501   92.4080    2.5712 C.ar    1  UNL1        0.0375
     36 C          63.2730   92.5802    1.8853 C.ar    1  UNL1        0.0043
     37 C          63.5565   93.8300    1.1058 C.ar    1  UNL1        0.0142
     38 C          62.5173   94.9077    1.0123 C.ar    1  UNL1        0.0043
     39 C          61.1944   94.7354    1.6982 C.ar    1  UNL1        0.0375
     40 C          64.8794   94.0023    0.4200 C.2     1  UNL1        0.0729
     41 O          65.1884   95.2795   -0.3036 O.co2   1  UNL1       -0.5446
     42 O          65.8932   92.8975    0.4576 O.co2   1  UNL1       -0.5446
@<TRIPOS>UNITY_ATOM_ATTR
41 1
charge -1
@<TRIPOS>BOND
     1    17    18    1
     2    18    16    1
     3    16    15    1
     4    15     1    1
     5     1     2   am
     6     2     3    2
     7     2     4    1
     8     4    19    1
     9    19    20    1
    10    20    21    1
    11    21    22    1
    12    22    23    1
    13    23    24    1
    14    24    25    1
    15     4     5    1
    16     5     6   am
    17     6     7    2
    18     6     8    1
    19     8     9    1
    20     9    10    1
    21    10    11    1
    22    11    26    1
    23    26    27    1
    24    27    28   ar
    25    28    29   ar
    26    29    30   ar
    27    30    33    1
    28    33    34    1
    29    34    35   ar
    30    35    36   ar
    31    36    37   ar
    32    37    40    1
    33    40    41   ar
    34    40    42   ar
    35    37    38   ar
    36    38    39   ar
    37    30    31   ar
    38    31    32   ar
    39    11    12    1
    40    12    13    1
    41     8     1    1
    42    32    27   ar
    43    25    20    1
    44    13     8    1
    45    39    34   ar
    46     5    14    1
@<TRIPOS>MOLECULE
*****
 42 46 0 0 0
SMALL
GASTEIGER

@<TRIPOS>ATOM
      1 N          62.0802   87.0312   11.0057 N.am    1  UNL1       -0.2734
      2 C          63.0060   86.8889   12.1774 C.2     1  UNL1        0.2438
      3 O          63.5000   85.5317   12.5824 O.2     1  UNL1       -0.2731
      4 C          63.4376   88.1037   12.9440 C.3     1  UNL1        0.1488
      5 N          62.9436   89.4609   12.5390 N.am    1  UNL1       -0.2970
      6 C          62.0179   89.6033   11.3674 C.2     1  UNL1        0.2389
      7 O          61.5239   90.9604   10.9624 O.2     1  UNL1       -0.2734
      8 C          61.5862   88.3884   10.6007 C.3     1  UNL1        0.1314
      9 C          61.1546   87.1736    9.8340 C.3     1  UNL1        0.0445
     10 C          60.2289   87.3159    8.6624 C.3     1  UNL1        0.0745
     11 N          59.7349   88.6731    8.2574 N.3     1  UNL1       -0.2688
     12 C          60.1665   89.8879    9.0240 C.3     1  UNL1        0.0745
     13 C          61.0922   89.7456   10.1957 C.3     1  UNL1        0.0445
     14 H          63.2270   90.2583   13.0422 H       1  UNL1        0.1499
     15 C          61.6486   85.8164   10.2390 C.3     1  UNL1        0.0938
     16 C          62.6763   84.9119    9.6262 C.3     1  UNL1        0.0215
     17 C          62.3896   84.7848    7.0471 C.3     1  UNL1        0.0001
     18 C          63.1939   85.1911    8.2463 C.3     1  UNL1        0.0018
     19 C          64.3634   87.9614   14.1158 C.3     1  UNL1        0.0290
     20 C          63.8355   87.4792   15.4344 C.3     1  UNL1        0.0021
     21 C          63.3056   88.4628   16.4352 C.3     1  UNL1        0.0001
     22 C          62.7778   87.9806   17.7538 C.3     1  UNL1        0.0000
     23 C          62.7799   86.5146   18.0716 C.3     1  UNL1        0.0000
     24 C          63.3098   85.5309   17.0708 C.3     1  UNL1        0.0000
     25 C          63.8376   86.0133   15.7521 C.3     1  UNL1        0.0001
     26 C          58.8091   88.8154    7.0857 C.3     1  UNL1        0.0992
     27 C          59.0032   89.9366    6.1083 C.ar    1  UNL1       -0.0059
     28 C          57.8208   90.7216    5.6230 C.ar    1  UNL1        0.0002
     29 C          58.0149   91.8428    4.6456 C.ar    1  UNL1        0.0372
     30 C          59.3914   92.1790    4.1536 C.ar    1  UNL1        0.1453
     31 C          60.5739   91.3940    4.6390 C.ar    1  UNL1        0.0372
     32 C          60.3798   90.2728    5.6163 C.ar    1  UNL1        0.0002
     33 O          59.5855   93.3002    3.1763 O.3     1  UNL1       -0.4535
     34 C          60.9084   93.4780    2.4919 C.ar    1  UNL1        0.1453
     35 C          61.1858   94.7269    1.7088 C.ar    1  UNL1        0.0375
     36 C          62.5087   94.9047    1.0244 C.ar    1  UNL1        0.0043
     37 C          63.5542   93.8337    1.1232 C.ar    1  UNL1        0.0142
     38 C          63.2768   92.5847    1.9063 C.ar    1  UNL1        0.0043
     39 C          61.9539   92.4069    2.5907 C.ar    1  UNL1        0.0375
     40 C          64.8771   94.0116    0.4388 C.2     1  UNL1        0.0729
     41 O          65.2205   95.3246   -0.2000 O.co2   1  UNL1       -0.5446
     42 O          65.8565   92.8764    0.3932 O.co2   1  UNL1       -0.5446
@<TRIPOS>UNITY_ATOM_ATTR
41 1
charge -1
@<TRIPOS>BOND
     1    17    18    1
     2    18    16    1
     3    16    15    1
     4    15     1    1
     5     1     2   am
     6     2     3    2
     7     2     4    1
     8     4    19    1
     9    19    20    1
    10    20    21    1
    11    21    22    1
    12    22    23    1
    13    23    24    1
    14    24    25    1
    15     4     5    1
    16     5     6   am
    17     6     7    2
    18     6     8    1
    19     8     9    1
    20     9    10    1
    21    10    11    1
    22    11    26    1
    23    26    27    1
    24    27    28   ar
    25    28    29   ar
    26    29    30   ar
    27    30    33    1
    28    33    34    1
    29    34    35   ar
    30    35    36   ar
    31    36    37   ar
    32    37    40    1
    33    40    41   ar
    34    40    42   ar
    35    37    38   ar
    36    38    39   ar
    37    30    31   ar
    38    31    32   ar
    39    11    12    1
    40    12    13    1
    41     8     1    1
    42    32    27   ar
    43    25    20    1
    44    13     8    1
    45    39    34   ar
    46     5    14    1
@<TRIPOS>MOLECULE
*****
 42 46 0 0 0
SMALL
GASTEIGER

@<TRIPOS>ATOM
      1 N          61.6464   88.3973   10.4356 N.am    1  UNL1       -0.2734
      2 C          62.3833   87.5755   11.4513 C.2     1  UNL1        0.2438
      3 O          63.1319   88.2506   12.5621 O.2     1  UNL1       -0.2731
      4 C          62.3717   86.0786   11.3563 C.3     1  UNL1        0.1488
      5 N          61.6232   85.4034   10.2455 N.am    1  UNL1       -0.2970
      6 C          60.8863   86.2251    9.2297 C.2     1  UNL1        0.2389
      7 O          60.1378   85.5499    8.1190 O.2     1  UNL1       -0.2734
      8 C          60.8979   87.7221    9.3248 C.3     1  UNL1        0.1314
      9 C          60.9096   89.2190    9.4198 C.3     1  UNL1        0.0445
     10 C          60.1727   90.0407    8.4041 C.3     1  UNL1        0.0745
     11 N          59.4242   89.3656    7.2933 N.3     1  UNL1       -0.2688
     12 C          59.4125   87.8686    7.1983 C.3     1  UNL1        0.0745
     13 C          60.1494   87.0469    8.2140 C.3     1  UNL1        0.0445
     14 H          61.6155   84.4209   10.1831 H       1  UNL1        0.1499
     15 C          61.6581   89.8942   10.5306 C.3     1  UNL1        0.0938
     16 C          62.8867   90.6610   10.1401 C.3     1  UNL1        0.0215
     17 C          64.7758   92.3054   10.8310 C.3     1  UNL1        0.0001
     18 C          63.7652   91.2596   11.1983 C.3     1  UNL1        0.0018
     19 C          63.1086   85.2567   12.3720 C.3     1  UNL1        0.0290
     20 C          62.9695   83.7632   12.3722 C.3     1  UNL1        0.0021
     21 C          63.4366   82.9664   11.1903 C.3     1  UNL1        0.0001
     22 C          63.2976   81.4729   11.1904 C.3     1  UNL1        0.0000
     23 C          62.6913   80.7761   12.3725 C.3     1  UNL1        0.0000
     24 C          62.2241   81.5730   13.5543 C.3     1  UNL1        0.0000
     25 C          62.3632   83.0666   13.5541 C.3     1  UNL1        0.0001
     26 C          58.6873   90.1874    6.2776 C.3     1  UNL1        0.0992
     27 C          59.4488   90.9457    5.2311 C.ar    1  UNL1       -0.0059
     28 C          58.7553   91.9916    4.4094 C.ar    1  UNL1        0.0002
     29 C          59.5168   92.7500    3.3629 C.ar    1  UNL1        0.0372
     30 C          60.9717   92.4624    3.1382 C.ar    1  UNL1        0.1453
     31 C          61.6652   91.4165    3.9600 C.ar    1  UNL1        0.0372
     32 C          60.9037   90.6582    5.0064 C.ar    1  UNL1        0.0002
     33 O          61.7332   93.2208    2.0918 O.3     1  UNL1       -0.4535
     34 C          61.1694   93.3623    0.7090 C.ar    1  UNL1        0.1453
     35 C          61.5388   94.5467   -0.1340 C.ar    1  UNL1        0.0375
     36 C          60.9750   94.6882   -1.5167 C.ar    1  UNL1        0.0043
     37 C          60.0418   93.6453   -2.0566 C.ar    1  UNL1        0.0142
     38 C          59.6723   92.4608   -1.2136 C.ar    1  UNL1        0.0043
     39 C          60.2361   92.3193    0.1692 C.ar    1  UNL1        0.0375
     40 C          59.4780   93.7868   -3.4393 C.2     1  UNL1        0.0729
     41 O          60.1479   94.6882   -4.4338 O.co2   1  UNL1       -0.5446
     42 O          58.2444   93.0270   -3.8277 O.co2   1  UNL1       -0.5446
@<TRIPOS>UNITY_ATOM_ATTR
41 1
charge -1
@<TRIPOS>BOND
     1    17    18    1
     2    18    16    1
     3    16    15    1
     4    15     1    1
     5     1     2   am
     6     2     3    2
     7     2     4    1
     8     4    19    1
     9    19    20    1
    10    20    21    1
    11    21    22    1
    12    22    23    1
    13    23    24    1
    14    24    25    1
    15     4     5    1
    16     5     6   am
    17     6     7    2
    18     6     8    1
    19     8     9    1
    20     9    10    1
    21    10    11    1
    22    11    26    1
    23    26    27    1
    24    27    28   ar
    25    28    29   ar
    26    29    30   ar
    27    30    33    1
    28    33    34    1
    29    34    35   ar
    30    35    36   ar
    31    36    37   ar
    32    37    40    1
    33    40    41   ar
    34    40    42   ar
    35    37    38   ar
    36    38    39   ar
    37    30    31   ar
    38    31    32   ar
    39    11    12    1
    40    12    13    1
    41     8     1    1
    42    32    27   ar
    43    25    20    1
    44    13     8    1
    45    39    34   ar
    46     5    14    1
@<TRIPOS>MOLECULE
*****
 42 46 0 0 0
SMALL
GASTEIGER

@<TRIPOS>ATOM
      1 N          62.1972   87.4021   11.3071 N.am    1  UNL1       -0.2734
      2 C          63.0694   87.4170   12.5275 C.2     1  UNL1        0.2438
      3 O          63.4738   86.1263   13.1760 O.2     1  UNL1       -0.2731
      4 C          63.5370   88.7224   13.0992 C.3     1  UNL1        0.1488
      5 N          63.1326   90.0131   12.4507 N.am    1  UNL1       -0.2970
      6 C          62.2605   89.9983   11.2304 C.2     1  UNL1        0.2389
      7 O          61.8560   91.2889   10.5818 O.2     1  UNL1       -0.2734
      8 C          61.7928   88.6927   10.6586 C.3     1  UNL1        0.1314
      9 C          61.3251   87.3873   10.0868 C.3     1  UNL1        0.0445
     10 C          60.4530   87.3724    8.8665 C.3     1  UNL1        0.0745
     11 N          60.0486   88.6631    8.2180 N.3     1  UNL1       -0.2688
     12 C          60.5162   89.9686    8.7897 C.3     1  UNL1        0.0745
     13 C          61.3883   89.9834   10.0100 C.3     1  UNL1        0.0445
     14 H          63.4395   90.8700   12.8260 H       1  UNL1        0.1499
     15 C          61.7295   86.0966   10.7354 C.3     1  UNL1        0.0938
     16 C          62.7160   85.1553   10.1101 C.3     1  UNL1        0.0215
     17 C          64.1304   82.9789   10.2214 C.3     1  UNL1        0.0001
     18 C          63.1149   83.9007   10.8289 C.3     1  UNL1        0.0018
     19 C          64.4092   88.7373   14.3196 C.3     1  UNL1        0.0290
     20 C          64.8333   90.0437   14.9224 C.3     1  UNL1        0.0021
     21 C          66.1098   90.6949   14.4792 C.3     1  UNL1        0.0001
     22 C          66.5340   92.0013   15.0820 C.3     1  UNL1        0.0000
     23 C          65.6816   92.6565   16.1281 C.3     1  UNL1        0.0000
     24 C          64.4052   92.0053   16.5714 C.3     1  UNL1        0.0000
     25 C          63.9810   90.6988   15.9685 C.3     1  UNL1        0.0001
     26 C          59.1764   88.6482    6.9976 C.3     1  UNL1        0.0992
     27 C          59.1793   89.8185    6.0594 C.ar    1  UNL1       -0.0059
     28 C          57.8987   90.5367    5.7521 C.ar    1  UNL1        0.0002
     29 C          57.9017   91.7070    4.8138 C.ar    1  UNL1        0.0372
     30 C          59.1852   92.1592    4.1829 C.ar    1  UNL1        0.1453
     31 C          60.4658   91.4411    4.4901 C.ar    1  UNL1        0.0372
     32 C          60.4628   90.2708    5.4284 C.ar    1  UNL1        0.0002
     33 O          59.1881   93.3295    3.2446 O.3     1  UNL1       -0.4535
     34 C          60.1914   93.3959    2.1316 C.ar    1  UNL1        0.1453
     35 C          61.2509   94.4577    2.1393 C.ar    1  UNL1        0.0375
     36 C          62.2543   94.5241    1.0262 C.ar    1  UNL1        0.0043
     37 C          62.1981   93.5288   -0.0946 C.ar    1  UNL1        0.0142
     38 C          61.1385   92.4670   -0.1023 C.ar    1  UNL1        0.0043
     39 C          60.1352   92.4006    1.0108 C.ar    1  UNL1        0.0375
     40 C          63.2014   93.5953   -1.2076 C.2     1  UNL1        0.0729
     41 O          62.8365   93.1027   -2.5767 O.co2   1  UNL1       -0.5446
     42 O          64.5696   94.1543   -0.9517 O.co2   1  UNL1       -0.5446
@<TRIPOS>UNITY_ATOM_ATTR
41 1
charge -1
@<TRIPOS>BOND
     1    17    18    1
     2    18    16    1
     3    16    15    1
     4    15     1    1
     5     1     2   am
     6     2     3    2
     7     2     4    1
     8     4    19    1
     9    19    20    1
    10    20    21    1
    11    21    22    1
    12    22    23    1
    13    23    24    1
    14    24    25    1
    15     4     5    1
    16     5     6   am
    17     6     7    2
    18     6     8    1
    19     8     9    1
    20     9    10    1
    21    10    11    1
    22    11    26    1
    23    26    27    1
    24    27    28   ar
    25    28    29   ar
    26    29    30   ar
    27    30    33    1
    28    33    34    1
    29    34    35   ar
    30    35    36   ar
    31    36    37   ar
    32    37    40    1
    33    40    41   ar
    34    40    42   ar
    35    37    38   ar
    36    38    39   ar
    37    30    31   ar
    38    31    32   ar
    39    11    12    1
    40    12    13    1
    41     8     1    1
    42    32    27   ar
    43    25    20    1
    44    13     8    1
    45    39    34   ar
    46     5    14    1
@<TRIPOS>MOLECULE
*****
 42 46 0 0 0
SMALL
GASTEIGER

@<TRIPOS>ATOM
      1 N          61.7321   86.0661    9.4836 N.am    1  UNL1       -0.2734
      2 C          62.5924   85.3903   10.5099 C.2     1  UNL1        0.2438
      3 O          63.2044   84.0535   10.2127 O.2     1  UNL1       -0.2731
      4 C          62.8406   86.0512   11.8333 C.3     1  UNL1        0.1488
      5 N          62.2285   87.3880   12.1306 N.am    1  UNL1       -0.2970
      6 C          61.3682   88.0639   11.1044 C.2     1  UNL1        0.2389
      7 O          60.7562   89.4007   11.4016 O.2     1  UNL1       -0.2734
      8 C          61.1200   87.4029    9.7809 C.3     1  UNL1        0.1314
      9 C          60.8718   86.7420    8.4575 C.3     1  UNL1        0.0445
     10 C          60.0115   87.4178    7.4313 C.3     1  UNL1        0.0745
     11 N          59.3994   88.7546    7.7285 N.3     1  UNL1       -0.2688
     12 C          59.6476   89.4156    9.0519 C.3     1  UNL1        0.0745
     13 C          60.5079   88.7397   10.0781 C.3     1  UNL1        0.0445
     14 H          62.3914   87.8218   12.9992 H       1  UNL1        0.1499
     15 C          61.4839   85.4052    8.1602 C.3     1  UNL1        0.0938
     16 C          62.6408   84.9636    7.3137 C.3     1  UNL1        0.0215
     17 C          61.0681   83.9081    5.5353 C.3     1  UNL1        0.0001
     18 C          62.4037   84.4754    5.9154 C.3     1  UNL1        0.0018
     19 C          63.7009   85.3754   12.8596 C.3     1  UNL1        0.0290
     20 C          63.4539   83.9398   13.2175 C.3     1  UNL1        0.0021
     21 C          62.2922   83.5743   14.0931 C.3     1  UNL1        0.0001
     22 C          62.0452   82.1387   14.4509 C.3     1  UNL1        0.0000
     23 C          62.9600   81.0686   13.9332 C.3     1  UNL1        0.0000
     24 C          64.1218   81.4341   13.0576 C.3     1  UNL1        0.0000
     25 C          64.3687   82.8698   12.6997 C.3     1  UNL1        0.0001
     26 C          58.5391   89.4305    6.7023 C.3     1  UNL1        0.0992
     27 C          59.1518   90.3861    5.7217 C.ar    1  UNL1       -0.0059
     28 C          60.6272   90.3435    5.4548 C.ar    1  UNL1        0.0002
     29 C          61.2399   91.2991    4.4742 C.ar    1  UNL1        0.0372
     30 C          60.3771   92.2972    3.7606 C.ar    1  UNL1        0.1453
     31 C          58.9017   92.3398    4.0275 C.ar    1  UNL1        0.0372
     32 C          58.2890   91.3843    5.0080 C.ar    1  UNL1        0.0002
     33 O          60.9898   93.2528    2.7800 O.3     1  UNL1       -0.4535
     34 C          60.3739   93.4338    1.4243 C.ar    1  UNL1        0.1453
     35 C          59.6860   94.7212    1.0788 C.ar    1  UNL1        0.0375
     36 C          59.0702   94.9022   -0.2769 C.ar    1  UNL1        0.0043
     37 C          59.1423   93.7958   -1.2872 C.ar    1  UNL1        0.0142
     38 C          59.8302   92.5083   -0.9417 C.ar    1  UNL1        0.0043
     39 C          60.4461   92.3273    0.4140 C.ar    1  UNL1        0.0375
     40 C          58.5265   93.9768   -2.6429 C.2     1  UNL1        0.0729
     41 O          58.4407   92.8157   -3.5887 O.co2   1  UNL1       -0.5446
     42 O          57.9964   95.3188   -3.0528 O.co2   1  UNL1       -0.5446
@<TRIPOS>UNITY_ATOM_ATTR
41 1
charge -1
@<TRIPOS>BOND
     1    17    18    1
     2    18    16    1
     3    16    15    1
     4    15     1    1
     5     1     2   am
     6     2     3    2
     7     2     4    1
     8     4    19    1
     9    19    20    1
    10    20    21    1
    11    21    22    1
    12    22    23    1
    13    23    24    1
    14    24    25    1
    15     4     5    1
    16     5     6   am
    17     6     7    2
    18     6     8    1
    19     8     9    1
    20     9    10    1
    21    10    11    1
    22    11    26    1
    23    26    27    1
    24    27    28   ar
    25    28    29   ar
    26    29    30   ar
    27    30    33    1
    28    33    34    1
    29    34    35   ar
    30    35    36   ar
    31    36    37   ar
    32    37    40    1
    33    40    41   ar
    34    40    42   ar
    35    37    38   ar
    36    38    39   ar
    37    30    31   ar
    38    31    32   ar
    39    11    12    1
    40    12    13    1
    41     8     1    1
    42    32    27   ar
    43    25    20    1
    44    13     8    1
    45    39    34   ar
    46     5    14    1
@<TRIPOS>MOLECULE
*****
 42 46 0 0 0
SMALL
GASTEIGER

@<TRIPOS>ATOM
      1 N          61.5433   86.8975   10.3699 N.am    1  UNL1       -0.2734
      2 C          62.4918   85.9970   11.1045 C.2     1  UNL1        0.2438
      3 O          62.8459   86.2861   12.5331 O.2     1  UNL1       -0.2731
      4 C          63.0861   84.8075   10.4104 C.3     1  UNL1        0.1488
      5 N          62.7321   84.5184    8.9817 N.am    1  UNL1       -0.2970
      6 C          61.7836   85.4188    8.2471 C.2     1  UNL1        0.2389
      7 O          61.4295   85.1297    6.8185 O.2     1  UNL1       -0.2734
      8 C          61.1892   86.6084    8.9412 C.3     1  UNL1        0.1314
      9 C          60.5948   87.7979    9.6353 C.3     1  UNL1        0.0445
     10 C          59.6464   88.6983    8.9007 C.3     1  UNL1        0.0745
     11 N          59.2923   88.4092    7.4720 N.3     1  UNL1       -0.2688
     12 C          59.8867   87.2197    6.7780 C.3     1  UNL1        0.0745
     13 C          60.8351   86.3193    7.5126 C.3     1  UNL1        0.0445
     14 H          63.1222   83.7377    8.5262 H       1  UNL1        0.1499
     15 C          60.9489   88.0870   11.0639 C.3     1  UNL1        0.0938
     16 C          61.8285   89.2269   11.4844 C.3     1  UNL1        0.0215
     17 C          63.0702   91.1193   10.2090 C.3     1  UNL1        0.0001
     18 C          62.9512   89.6751   10.5964 C.3     1  UNL1        0.0018
     19 C          64.0346   83.9070   11.1450 C.3     1  UNL1        0.0290
     20 C          63.7258   83.4772   12.5485 C.3     1  UNL1        0.0021
     21 C          62.5590   82.5735   12.8165 C.3     1  UNL1        0.0001
     22 C          62.2501   82.1437   14.2200 C.3     1  UNL1        0.0000
     23 C          63.1081   82.6177   15.3556 C.3     1  UNL1        0.0000
     24 C          64.2748   83.5215   15.0875 C.3     1  UNL1        0.0000
     25 C          64.5837   83.9512   13.6839 C.3     1  UNL1        0.0001
     26 C          58.3438   89.3097    6.7374 C.3     1  UNL1        0.0992
     27 C          58.8744   90.3506    5.7968 C.ar    1  UNL1       -0.0059
     28 C          60.3429   90.4122    5.4974 C.ar    1  UNL1        0.0002
     29 C          60.8735   91.4532    4.5567 C.ar    1  UNL1        0.0372
     30 C          59.9356   92.4326    3.9155 C.ar    1  UNL1        0.1453
     31 C          58.4671   92.3710    4.2149 C.ar    1  UNL1        0.0372
     32 C          57.9365   91.3301    5.1556 C.ar    1  UNL1        0.0002
     33 O          60.4663   93.4735    2.9748 O.3     1  UNL1       -0.4535
     34 C          60.0020   93.5023    1.5488 C.ar    1  UNL1        0.1453
     35 C          59.9554   92.2339    0.7495 C.ar    1  UNL1        0.0375
     36 C          59.4911   92.2626   -0.6766 C.ar    1  UNL1        0.0043
     37 C          59.0735   93.5598   -1.3033 C.ar    1  UNL1        0.0142
     38 C          59.1201   94.8283   -0.5040 C.ar    1  UNL1        0.0043
     39 C          59.5844   94.7996    0.9220 C.ar    1  UNL1        0.0375
     40 C          58.6092   93.5886   -2.7294 C.2     1  UNL1        0.0729
     41 O          58.4387   94.9006   -3.4363 O.co2   1  UNL1       -0.5446
     42 O          58.3155   92.3054   -3.4485 O.co2   1  UNL1       -0.5446
@<TRIPOS>UNITY_ATOM_ATTR
41 1
charge -1
@<TRIPOS>BOND
     1    17    18    1
     2    18    16    1
     3    16    15    1
     4    15     1    1
     5     1     2   am
     6     2     3    2
     7     2     4    1
     8     4    19    1
     9    19    20    1
    10    20    21    1
    11    21    22    1
    12    22    23    1
    13    23    24    1
    14    24    25    1
    15     4     5    1
    16     5     6   am
    17     6     7    2
    18     6     8    1
    19     8     9    1
    20     9    10    1
    21    10    11    1
    22    11    26    1
    23    26    27    1
    24    27    28   ar
    25    28    29   ar
    26    29    30   ar
    27    30    33    1
    28    33    34    1
    29    34    35   ar
    30    35    36   ar
    31    36    37   ar
    32    37    40    1
    33    40    41   ar
    34    40    42   ar
    35    37    38   ar
    36    38    39   ar
    37    30    31   ar
    38    31    32   ar
    39    11    12    1
    40    12    13    1
    41     8     1    1
    42    32    27   ar
    43    25    20    1
    44    13     8    1
    45    39    34   ar
    46     5    14    1
@<TRIPOS>MOLECULE
*****
 42 46 0 0 0
SMALL
GASTEIGER

@<TRIPOS>ATOM
      1 N          61.3336   93.5549    1.9378 N.am    1  UNL1       -0.2734
      2 C          62.2970   94.1599    0.9600 C.2     1  UNL1        0.2438
      3 O          61.8466   95.2620    0.0476 O.2     1  UNL1       -0.2731
      4 C          63.7106   93.6628    0.8948 C.3     1  UNL1        0.1488
      5 N          64.1610   92.5607    1.8072 N.am    1  UNL1       -0.2970
      6 C          63.1977   91.9557    2.7849 C.2     1  UNL1        0.2389
      7 O          63.6481   90.8536    3.6974 O.2     1  UNL1       -0.2734
      8 C          61.7839   92.4528    2.8502 C.3     1  UNL1        0.1314
      9 C          60.3702   92.9499    2.9155 C.3     1  UNL1        0.0445
     10 C          59.4069   92.3449    3.8932 C.3     1  UNL1        0.0745
     11 N          59.8573   91.2428    4.8056 N.3     1  UNL1       -0.2688
     12 C          61.2710   90.7457    4.7404 C.3     1  UNL1        0.0745
     13 C          62.2343   91.3507    3.7627 C.3     1  UNL1        0.0445
     14 H          65.0889   92.2344    1.7644 H       1  UNL1        0.1499
     15 C          59.9199   94.0520    2.0030 C.3     1  UNL1        0.0938
     16 C          59.1511   94.2949    0.7381 C.3     1  UNL1        0.0215
     17 C          59.7289   92.4966   -1.0457 C.3     1  UNL1        0.0001
     18 C          58.7365   93.1378   -0.1215 C.3     1  UNL1        0.0018
     19 C          64.6741   94.2678   -0.0830 C.3     1  UNL1        0.0290
     20 C          64.3271   94.3231   -1.5412 C.3     1  UNL1        0.0021
     21 C          63.6228   93.1680   -2.1890 C.3     1  UNL1        0.0001
     22 C          63.2759   93.2233   -3.6472 C.3     1  UNL1        0.0000
     23 C          63.6332   94.4339   -4.4578 C.3     1  UNL1        0.0000
     24 C          64.3375   95.5890   -3.8100 C.3     1  UNL1        0.0000
     25 C          64.6844   95.5336   -2.3517 C.3     1  UNL1        0.0001
     26 C          58.8939   90.6378    5.7834 C.3     1  UNL1        0.0992
     27 C          59.3567   89.5692    6.7288 C.ar    1  UNL1       -0.0059
     28 C          60.1109   89.9418    7.9708 C.ar    1  UNL1        0.0002
     29 C          60.5736   88.8731    8.9162 C.ar    1  UNL1        0.0372
     30 C          60.2823   87.4319    8.6197 C.ar    1  UNL1        0.1453
     31 C          59.5281   87.0593    7.3777 C.ar    1  UNL1        0.0372
     32 C          59.0653   88.1279    6.4323 C.ar    1  UNL1        0.0002
     33 O          60.7451   86.3633    9.5651 O.3     1  UNL1       -0.4535
     34 C          61.6443   86.7154   10.7128 C.ar    1  UNL1        0.1453
     35 C          62.0215   88.1462   10.9586 C.ar    1  UNL1        0.0375
     36 C          62.9207   88.4984   12.1063 C.ar    1  UNL1        0.0043
     37 C          63.4428   87.4196   13.0084 C.ar    1  UNL1        0.0142
     38 C          63.0657   85.9887   12.7627 C.ar    1  UNL1        0.0043
     39 C          62.1664   85.6366   11.6149 C.ar    1  UNL1        0.0375
     40 C          64.3421   87.7718   14.1561 C.2     1  UNL1        0.0729
     41 O          64.9577   86.6853   14.9873 O.co2   1  UNL1       -0.5446
     42 O          64.6258   89.2102   14.4727 O.co2   1  UNL1       -0.5446
@<TRIPOS>UNITY_ATOM_ATTR
41 1
charge -1
@<TRIPOS>BOND
     1    17    18    1
     2    18    16    1
     3    16    15    1
     4    15     1    1
     5     1     2   am
     6     2     3    2
     7     2     4    1
     8     4    19    1
     9    19    20    1
    10    20    21    1
    11    21    22    1
    12    22    23    1
    13    23    24    1
    14    24    25    1
    15     4     5    1
    16     5     6   am
    17     6     7    2
    18     6     8    1
    19     8     9    1
    20     9    10    1
    21    10    11    1
    22    11    26    1
    23    26    27    1
    24    27    28   ar
    25    28    29   ar
    26    29    30   ar
    27    30    33    1
    28    33    34    1
    29    34    35   ar
    30    35    36   ar
    31    36    37   ar
    32    37    40    1
    33    40    41   ar
    34    40    42   ar
    35    37    38   ar
    36    38    39   ar
    37    30    31   ar
    38    31    32   ar
    39    11    12    1
    40    12    13    1
    41     8     1    1
    42    32    27   ar
    43    25    20    1
    44    13     8    1
    45    39    34   ar
    46     5    14    1
@<TRIPOS>MOLECULE
*****
 42 46 0 0 0
SMALL
GASTEIGER

@<TRIPOS>ATOM
      1 N          61.4224   93.5489    2.1594 N.am    1  UNL1       -0.2734
      2 C          62.4088   94.2749    1.2934 C.2     1  UNL1        0.2438
      3 O          61.9696   95.4633    0.4903 O.2     1  UNL1       -0.2731
      4 C          63.8344   93.8127    1.2306 C.3     1  UNL1        0.1488
      5 N          64.2736   92.6244    2.0337 N.am    1  UNL1       -0.2970
      6 C          63.2873   91.8983    2.8996 C.2     1  UNL1        0.2389
      7 O          63.7265   90.7100    3.7027 O.2     1  UNL1       -0.2734
      8 C          61.8616   92.3605    2.9625 C.3     1  UNL1        0.1314
      9 C          60.4360   92.8228    3.0254 C.3     1  UNL1        0.0445
     10 C          59.4497   92.0967    3.8913 C.3     1  UNL1        0.0745
     11 N          59.8889   90.9084    4.6944 N.3     1  UNL1       -0.2688
     12 C          61.3145   90.4461    4.6315 C.3     1  UNL1        0.0745
     13 C          62.3008   91.1722    3.7656 C.3     1  UNL1        0.0445
     14 H          65.2093   92.3210    1.9924 H       1  UNL1        0.1499
     15 C          59.9968   94.0111    2.2223 C.3     1  UNL1        0.0938
     16 C          59.2329   94.2611    0.9558 C.3     1  UNL1        0.0215
     17 C          59.9551   92.6318   -0.9346 C.3     1  UNL1        0.0001
     18 C          58.9183   93.1217    0.0323 C.3     1  UNL1        0.0018
     19 C          64.8208   94.5388    0.3646 C.3     1  UNL1        0.0290
     20 C          64.5633   94.6843   -1.1059 C.3     1  UNL1        0.0021
     21 C          65.0117   95.9207   -1.8271 C.3     1  UNL1        0.0001
     22 C          64.7542   96.0662   -3.2976 C.3     1  UNL1        0.0000
     23 C          64.0482   94.9752   -4.0470 C.3     1  UNL1        0.0000
     24 C          63.5997   93.7388   -3.3258 C.3     1  UNL1        0.0000
     25 C          63.8573   93.5934   -1.8552 C.3     1  UNL1        0.0001
     26 C          58.9025   90.1823    5.5604 C.3     1  UNL1        0.0992
     27 C          59.3518   89.5585    6.8483 C.ar    1  UNL1       -0.0059
     28 C          59.0352   88.1208    7.1359 C.ar    1  UNL1        0.0002
     29 C          59.4846   87.4969    8.4240 C.ar    1  UNL1        0.0372
     30 C          60.2506   88.3108    9.4243 C.ar    1  UNL1        0.1453
     31 C          60.5672   89.7486    9.1367 C.ar    1  UNL1        0.0372
     32 C          60.1179   90.3724    7.8488 C.ar    1  UNL1        0.0002
     33 O          60.6999   87.6870   10.7123 O.3     1  UNL1       -0.4535
     34 C          61.6078   86.4931   10.6908 C.ar    1  UNL1        0.1453
     35 C          62.2575   86.0680    9.4074 C.ar    1  UNL1        0.0375
     36 C          63.1653   84.8741    9.3859 C.ar    1  UNL1        0.0043
     37 C          63.4234   84.1053   10.6477 C.ar    1  UNL1        0.0142
     38 C          62.7736   84.5304   11.9312 C.ar    1  UNL1        0.0043
     39 C          61.8658   85.7243   11.9527 C.ar    1  UNL1        0.0375
     40 C          64.3312   82.9114   10.6262 C.2     1  UNL1        0.0729
     41 O          64.8371   82.3306   11.9134 O.co2   1  UNL1       -0.5446
     42 O          64.7332   82.2983    9.3176 O.co2   1  UNL1       -0.5446
@<TRIPOS>UNITY_ATOM_ATTR
41 1
charge -1
@<TRIPOS>BOND
     1    17    18    1
     2    18    16    1
     3    16    15    1
     4    15     1    1
     5     1     2   am
     6     2     3    2
     7     2     4    1
     8     4    19    1
     9    19    20    1
    10    20    21    1
    11    21    22    1
    12    22    23    1
    13    23    24    1
    14    24    25    1
    15     4     5    1
    16     5     6   am
    17     6     7    2
    18     6     8    1
    19     8     9    1
    20     9    10    1
    21    10    11    1
    22    11    26    1
    23    26    27    1
    24    27    28   ar
    25    28    29   ar
    26    29    30   ar
    27    30    33    1
    28    33    34    1
    29    34    35   ar
    30    35    36   ar
    31    36    37   ar
    32    37    40    1
    33    40    41   ar
    34    40    42   ar
    35    37    38   ar
    36    38    39   ar
    37    30    31   ar
    38    31    32   ar
    39    11    12    1
    40    12    13    1
    41     8     1    1
    42    32    27   ar
    43    25    20    1
    44    13     8    1
    45    39    34   ar
    46     5    14    1
@<TRIPOS>MOLECULE
*****
 42 46 0 0 0
SMALL
GASTEIGER

@<TRIPOS>ATOM
      1 N          62.5332   88.0455   11.7146 N.am    1  UNL1       -0.2734
      2 C          63.4193   88.2437   12.9087 C.2     1  UNL1        0.2438
      3 O          63.7753   87.0760   13.7804 O.2     1  UNL1       -0.2731
      4 C          63.9493   89.6094   13.2309 C.3     1  UNL1        0.1488
      5 N          63.5933   90.7770   12.3592 N.am    1  UNL1       -0.2970
      6 C          62.7073   90.5789   11.1652 C.2     1  UNL1        0.2389
      7 O          62.3513   91.7465   10.2934 O.2     1  UNL1       -0.2734
      8 C          62.1772   89.2132   10.8428 C.3     1  UNL1        0.1314
      9 C          61.6472   87.8475   10.5206 C.3     1  UNL1        0.0445
     10 C          60.7612   87.6494    9.3266 C.3     1  UNL1        0.0745
     11 N          60.4052   88.8170    8.4548 N.3     1  UNL1       -0.2688
     12 C          60.9352   90.1827    8.7771 C.3     1  UNL1        0.0745
     13 C          61.8212   90.3808    9.9711 C.3     1  UNL1        0.0445
     14 H          63.9412   91.6733   12.5707 H       1  UNL1        0.1499
     15 C          62.0032   86.6798   11.3923 C.3     1  UNL1        0.0938
     16 C          62.9420   85.5951   10.9544 C.3     1  UNL1        0.0215
     17 C          63.9730   83.8044   12.5294 C.3     1  UNL1        0.0001
     18 C          62.8796   84.2430   11.6008 C.3     1  UNL1        0.0018
     19 C          64.8354   89.8075   14.4250 C.3     1  UNL1        0.0290
     20 C          65.9115   90.8520   14.3953 C.3     1  UNL1        0.0021
     21 C          66.6281   91.2266   15.6587 C.3     1  UNL1        0.0001
     22 C          67.7042   92.2711   15.6290 C.3     1  UNL1        0.0000
     23 C          68.0637   92.9411   14.3360 C.3     1  UNL1        0.0000
     24 C          67.3471   92.5665   13.0726 C.3     1  UNL1        0.0000
     25 C          66.2709   91.5220   13.1023 C.3     1  UNL1        0.0001
     26 C          59.5191   88.6189    7.2608 C.3     1  UNL1        0.0992
     27 C          59.3822   89.7088    6.2394 C.ar    1  UNL1       -0.0059
     28 C          60.5997   90.2434    5.5451 C.ar    1  UNL1        0.0002
     29 C          60.4626   91.3333    4.5237 C.ar    1  UNL1        0.0372
     30 C          59.1082   91.8886    4.1965 C.ar    1  UNL1        0.1453
     31 C          57.8907   91.3540    4.8907 C.ar    1  UNL1        0.0372
     32 C          58.0277   90.2641    5.9121 C.ar    1  UNL1        0.0002
     33 O          58.9713   92.9785    3.1751 O.3     1  UNL1       -0.4535
     34 C          59.9300   93.0523    2.0239 C.ar    1  UNL1        0.1453
     35 C          59.4287   92.8943    0.6190 C.ar    1  UNL1        0.0375
     36 C          60.3875   92.9681   -0.5322 C.ar    1  UNL1        0.0043
     37 C          61.8475   93.1999   -0.2786 C.ar    1  UNL1        0.0142
     38 C          62.3489   93.3579    1.1263 C.ar    1  UNL1        0.0043
     39 C          61.3902   93.2841    2.2776 C.ar    1  UNL1        0.0375
     40 C          62.8063   93.2737   -1.4298 C.2     1  UNL1        0.0729
     41 O          64.2047   93.7704   -1.2106 O.co2   1  UNL1       -0.5446
     42 O          62.3668   92.8508   -2.8002 O.co2   1  UNL1       -0.5446
@<TRIPOS>UNITY_ATOM_ATTR
41 1
charge -1
@<TRIPOS>BOND
     1    17    18    1
     2    18    16    1
     3    16    15    1
     4    15     1    1
     5     1     2   am
     6     2     3    2
     7     2     4    1
     8     4    19    1
     9    19    20    1
    10    20    21    1
    11    21    22    1
    12    22    23    1
    13    23    24    1
    14    24    25    1
    15     4     5    1
    16     5     6   am
    17     6     7    2
    18     6     8    1
    19     8     9    1
    20     9    10    1
    21    10    11    1
    22    11    26    1
    23    26    27    1
    24    27    28   ar
    25    28    29   ar
    26    29    30   ar
    27    30    33    1
    28    33    34    1
    29    34    35   ar
    30    35    36   ar
    31    36    37   ar
    32    37    40    1
    33    40    41   ar
    34    40    42   ar
    35    37    38   ar
    36    38    39   ar
    37    30    31   ar
    38    31    32   ar
    39    11    12    1
    40    12    13    1
    41     8     1    1
    42    32    27   ar
    43    25    20    1
    44    13     8    1
    45    39    34   ar
    46     5    14    1
