@<TRIPOS>MOLECULE
*****
 36 39 0 0 0
SMALL
GASTEIGER

@<TRIPOS>ATOM
      1 C          63.0376   90.2925   11.3954 C.ar    1  UNL1        0.1668
      2 N          63.9977   91.2493   10.7532 N.ar    1  UNL1       -0.2102
      3 C          64.9522   92.0366   11.6013 C.ar    1  UNL1        0.1543
      4 C          64.9463   91.8671   13.0917 C.ar    1  UNL1        0.1485
      5 N          65.7639   92.5020   14.1773 N.ar    1  UNL1       -0.2194
      6 C          65.3089   91.9376   15.4904 C.ar    1  UNL1        0.1798
      7 N          64.2102   90.9538   15.2165 N.ar    1  UNL1       -0.2944
      8 C          63.9861   90.9103   13.7339 C.ar    1  UNL1        0.1672
      9 N          63.0317   90.1230   12.8858 N.ar    1  UNL1       -0.2077
     10 N          59.2200   87.1431    8.0031 N.pl3   1  UNL1       -0.3426
     11 C          60.1744   87.9305    8.8512 C.ar    1  UNL1        0.1254
     12 C          61.3753   87.2596    9.4491 C.ar    1  UNL1        0.0340
     13 C          62.3297   88.0469   10.2972 C.ar    1  UNL1        0.0075
     14 C          62.0831   89.5052   10.5473 C.ar    1  UNL1        0.0551
     15 C          60.8822   90.1761    9.9494 C.ar    1  UNL1        0.1033
     16 N          59.9277   89.3888    9.1013 N.ar    1  UNL1       -0.2295
     17 H          59.3818   86.1860    7.8389 H       1  UNL1        0.1437
     18 H          58.4317   87.5835    7.6107 H       1  UNL1        0.1437
     19 N          65.9124   92.9934   10.9590 N.pl3   1  UNL1       -0.2868
     20 C          65.7373   94.4712   11.1472 C.3     1  UNL1        0.1243
     21 C          66.6975   95.4280   10.5049 C.3     1  UNL1        0.1636
     22 O          67.8328   94.9070    9.6745 O.3     1  UNL1       -0.3501
     23 C          68.0079   93.4292    9.4863 C.3     1  UNL1        0.1636
     24 C          67.0477   92.4723   10.1286 C.3     1  UNL1        0.1243
     25 C          63.4662   90.1541   16.2445 C.3     1  UNL1        0.1090
     26 C          63.4671   88.6558   16.1740 C.3     1  UNL1        0.0246
     27 C          62.8804   87.8518   17.2961 C.3     1  UNL1        0.0020
     28 C          62.8197   86.3564   17.1956 C.3     1  UNL1        0.0006
     29 C          63.8817   85.6115   16.4424 C.3     1  UNL1        0.0096
     30 C          63.6900   85.2984   14.9880 C.3     1  UNL1        0.0871
     31 C          63.4751   83.8806   14.5481 C.2     1  UNL1        0.2443
     32 O          64.0977   83.3876   13.2756 O.2     1  UNL1       -0.2730
     33 N          62.6375   82.9557   15.3805 N.am    1  UNL1       -0.1970
     34 O          62.4226   81.5379   14.9406 O.3     1  UNL1       -0.2952
     35 H          62.2288   83.2793   16.2157 H       1  UNL1        0.1822
     36 H          62.8903   81.3843   14.1048 H       1  UNL1        0.2414
@<TRIPOS>BOND
     1    10    11    1
     2    11    12   ar
     3    12    13   ar
     4    13    14   ar
     5    14     1    1
     6     1     2   ar
     7     2     3   ar
     8     3    19    1
     9    19    20    1
    10    20    21    1
    11    21    22    1
    12    22    23    1
    13    23    24    1
    14     3     4   ar
    15     4     5   ar
    16     5     6   ar
    17     6     7   ar
    18     7    25    1
    19    25    26    1
    20    26    27    1
    21    27    28    1
    22    28    29    1
    23    29    30    1
    24    30    31    1
    25    31    32    2
    26    31    33   am
    27    33    34    1
    28     7     8   ar
    29     8     9   ar
    30    14    15   ar
    31    15    16   ar
    32    16    11   ar
    33     9     1   ar
    34    24    19    1
    35     8     4   ar
    36    10    17    1
    37    10    18    1
    38    33    35    1
    39    34    36    1
@<TRIPOS>MOLECULE
*****
 36 39 0 0 0
SMALL
GASTEIGER

@<TRIPOS>ATOM
      1 C          61.8681   86.6273   11.1009 C.ar    1  UNL1        0.1668
      2 N          61.8573   85.1413   11.3041 N.ar    1  UNL1       -0.2102
      3 C          62.6223   84.5344   12.4428 C.ar    1  UNL1        0.1543
      4 C          63.3981   85.4137   13.3782 C.ar    1  UNL1        0.1485
      5 N          64.2408   85.1040   14.5798 N.ar    1  UNL1       -0.2194
      6 C          64.7724   86.3987   15.1192 C.ar    1  UNL1        0.1798
      7 N          64.2583   87.5086   14.2510 N.ar    1  UNL1       -0.2944
      8 C          63.4089   86.8998   13.1749 C.ar    1  UNL1        0.1672
      9 N          62.6439   87.5066   12.0363 N.ar    1  UNL1       -0.2077
     10 N          58.8080   89.0548    6.5463 N.pl3   1  UNL1       -0.3426
     11 C          59.5730   88.4479    7.6850 C.ar    1  UNL1        0.1254
     12 C          59.6568   86.9565    7.8219 C.ar    1  UNL1        0.0340
     13 C          60.4218   86.3497    8.9605 C.ar    1  UNL1        0.0075
     14 C          61.1030   87.2343    9.9622 C.ar    1  UNL1        0.0551
     15 C          61.0193   88.7256    9.8254 C.ar    1  UNL1        0.1033
     16 N          60.2543   89.3325    8.6867 N.ar    1  UNL1       -0.2295
     17 H          58.3609   88.4742    5.8889 H       1  UNL1        0.1437
     18 H          58.7530   90.0336    6.4565 H       1  UNL1        0.1437
     19 N          62.6115   83.0482   12.6459 N.pl3   1  UNL1       -0.2868
     20 C          63.0115   82.1351   11.5251 C.3     1  UNL1        0.1243
     21 C          63.0007   80.6490   11.7282 C.3     1  UNL1        0.1636
     22 O          62.5899   80.0760   13.0521 O.3     1  UNL1       -0.3501
     23 C          62.1898   80.9890   14.1729 C.3     1  UNL1        0.1636
     24 C          62.2006   82.4752   13.9699 C.3     1  UNL1        0.1243
     25 C          64.5434   88.9706   14.4277 C.3     1  UNL1        0.1090
     26 C          63.5707   89.9917   13.9167 C.3     1  UNL1        0.0246
     27 C          64.0568   91.1380   13.0805 C.3     1  UNL1        0.0020
     28 C          63.8108   91.1443   11.6008 C.3     1  UNL1        0.0006
     29 C          64.5749   92.0854   10.7173 C.3     1  UNL1        0.0096
     30 C          65.5112   93.0889   11.3226 C.3     1  UNL1        0.0871
     31 C          66.9938   92.9166   11.1735 C.2     1  UNL1        0.2443
     32 O          67.7759   92.1997   12.2338 O.2     1  UNL1       -0.2730
     33 N          67.6942   93.4613    9.9641 N.am    1  UNL1       -0.1970
     34 O          69.1768   93.2890    9.8150 O.3     1  UNL1       -0.2952
     35 H          67.1808   93.9318    9.2682 H       1  UNL1        0.1822
     36 H          69.5251   92.8078   10.5818 H       1  UNL1        0.2414
@<TRIPOS>BOND
     1    10    11    1
     2    11    12   ar
     3    12    13   ar
     4    13    14   ar
     5    14     1    1
     6     1     2   ar
     7     2     3   ar
     8     3    19    1
     9    19    20    1
    10    20    21    1
    11    21    22    1
    12    22    23    1
    13    23    24    1
    14     3     4   ar
    15     4     5   ar
    16     5     6   ar
    17     6     7   ar
    18     7    25    1
    19    25    26    1
    20    26    27    1
    21    27    28    1
    22    28    29    1
    23    29    30    1
    24    30    31    1
    25    31    32    2
    26    31    33   am
    27    33    34    1
    28     7     8   ar
    29     8     9   ar
    30    14    15   ar
    31    15    16   ar
    32    16    11   ar
    33     9     1   ar
    34    24    19    1
    35     8     4   ar
    36    10    17    1
    37    10    18    1
    38    33    35    1
    39    34    36    1
@<TRIPOS>MOLECULE
*****
 36 39 0 0 0
SMALL
GASTEIGER

@<TRIPOS>ATOM
      1 C          61.8885   86.5568   11.1059 C.ar    1  UNL1        0.1668
      2 N          61.8676   85.0689   11.2943 N.ar    1  UNL1       -0.2102
      3 C          62.6306   84.4452   12.4252 C.ar    1  UNL1        0.1543
      4 C          63.4147   85.3096   13.3676 C.ar    1  UNL1        0.1485
      5 N          64.2577   84.9819   14.5642 N.ar    1  UNL1       -0.2194
      6 C          64.7996   86.2674   15.1153 C.ar    1  UNL1        0.1798
      7 N          64.2916   87.3896   14.2593 N.ar    1  UNL1       -0.2944
      8 C          63.4356   86.7976   13.1791 C.ar    1  UNL1        0.1672
      9 N          62.6726   87.4212   12.0483 N.ar    1  UNL1       -0.2077
     10 N          58.8363   89.0513    6.5824 N.pl3   1  UNL1       -0.3426
     11 C          59.5994   88.4277    7.7132 C.ar    1  UNL1        0.1254
     12 C          59.7233   86.9354    7.8016 C.ar    1  UNL1        0.0340
     13 C          60.4863   86.3118    8.9324 C.ar    1  UNL1        0.0075
     14 C          61.1255   87.1805    9.9750 C.ar    1  UNL1        0.0551
     15 C          61.0016   88.6727    9.8867 C.ar    1  UNL1        0.1033
     16 N          60.2385   89.2963    8.7558 N.ar    1  UNL1       -0.2295
     17 H          58.4168   88.4811    5.8981 H       1  UNL1        0.1437
     18 H          58.7550   90.0307    6.5244 H       1  UNL1        0.1437
     19 N          62.6096   82.9572   12.6136 N.pl3   1  UNL1       -0.2868
     20 C          62.1371   82.3722   13.9114 C.3     1  UNL1        0.1243
     21 C          62.1160   80.8842   14.0999 C.3     1  UNL1        0.1636
     22 O          62.5675   79.9813   12.9905 O.3     1  UNL1       -0.3501
     23 C          63.0400   80.5663   11.6926 C.3     1  UNL1        0.1636
     24 C          63.0611   82.0543   11.5041 C.3     1  UNL1        0.1243
     25 C          64.5876   88.8476   14.4500 C.3     1  UNL1        0.1090
     26 C          63.4699   89.8479   14.4366 C.3     1  UNL1        0.0246
     27 C          63.3935   90.8725   13.3439 C.3     1  UNL1        0.0020
     28 C          64.6346   91.2724   12.6025 C.3     1  UNL1        0.0006
     29 C          65.5204   92.3519   13.1502 C.3     1  UNL1        0.0096
     30 C          66.3308   92.1015   14.3874 C.3     1  UNL1        0.0871
     31 C          67.7984   92.4117   14.3983 C.2     1  UNL1        0.2443
     32 O          68.3437   93.4245   15.3610 O.2     1  UNL1       -0.2730
     33 N          68.7205   91.7092   13.4465 N.am    1  UNL1       -0.1970
     34 O          70.1880   92.0195   13.4574 O.3     1  UNL1       -0.2952
     35 H          68.3626   91.0445   12.8146 H       1  UNL1        0.1822
     36 H          70.3717   92.6902   14.1337 H       1  UNL1        0.2414
@<TRIPOS>BOND
     1    10    11    1
     2    11    12   ar
     3    12    13   ar
     4    13    14   ar
     5    14     1    1
     6     1     2   ar
     7     2     3   ar
     8     3    19    1
     9    19    20    1
    10    20    21    1
    11    21    22    1
    12    22    23    1
    13    23    24    1
    14     3     4   ar
    15     4     5   ar
    16     5     6   ar
    17     6     7   ar
    18     7    25    1
    19    25    26    1
    20    26    27    1
    21    27    28    1
    22    28    29    1
    23    29    30    1
    24    30    31    1
    25    31    32    2
    26    31    33   am
    27    33    34    1
    28     7     8   ar
    29     8     9   ar
    30    14    15   ar
    31    15    16   ar
    32    16    11   ar
    33     9     1   ar
    34    24    19    1
    35     8     4   ar
    36    10    17    1
    37    10    18    1
    38    33    35    1
    39    34    36    1
@<TRIPOS>MOLECULE
*****
 36 39 0 0 0
SMALL
GASTEIGER

@<TRIPOS>ATOM
      1 C          62.7227   85.7307   12.3510 C.ar    1  UNL1        0.1668
      2 N          61.8498   86.0125   11.1642 N.ar    1  UNL1       -0.2102
      3 C          61.6666   87.4223   10.6857 C.ar    1  UNL1        0.1543
      4 C          62.3564   88.5503   11.3941 C.ar    1  UNL1        0.1485
      5 N          62.3648   90.0308   11.1535 N.ar    1  UNL1       -0.2194
      6 C          63.2430   90.6641   12.1917 C.ar    1  UNL1        0.1798
      7 N          63.7773   89.5749   13.0739 N.ar    1  UNL1       -0.2944
      8 C          63.2294   88.2685   12.5809 C.ar    1  UNL1        0.1672
      9 N          63.4125   86.8587   13.0594 N.ar    1  UNL1       -0.2077
     10 N          63.4555   80.0915   14.2649 N.pl3   1  UNL1       -0.3426
     11 C          63.2723   81.5013   13.7864 C.ar    1  UNL1        0.1254
     12 C          62.9083   81.7664   12.3556 C.ar    1  UNL1        0.0340
     13 C          62.7251   83.1762   11.8771 C.ar    1  UNL1        0.0075
     14 C          62.9059   84.3209   12.8295 C.ar    1  UNL1        0.0551
     15 C          63.2699   84.0558   14.2602 C.ar    1  UNL1        0.1033
     16 N          63.4531   82.6460   14.7388 N.ar    1  UNL1       -0.2295
     17 H          63.3368   79.3402   13.6398 H       1  UNL1        0.1437
     18 H          63.6944   79.9175   15.2039 H       1  UNL1        0.1437
     19 N          60.7937   87.7040    9.4988 N.pl3   1  UNL1       -0.2868
     20 C          60.1098   86.5752    8.7860 C.3     1  UNL1        0.1243
     21 C          59.2369   86.8568    7.5992 C.3     1  UNL1        0.1636
     22 O          59.0478   88.2673    7.1252 O.3     1  UNL1       -0.3501
     23 C          59.7316   89.3961    7.8380 C.3     1  UNL1        0.1636
     24 C          60.6046   89.1145    9.0248 C.3     1  UNL1        0.1243
     25 C          64.6979   89.7597   14.2436 C.3     1  UNL1        0.1090
     26 C          65.2599   91.1166   14.5488 C.3     1  UNL1        0.0246
     27 C          66.7445   91.3306   14.5496 C.3     1  UNL1        0.0020
     28 C          67.3933   92.0912   13.4312 C.3     1  UNL1        0.0006
     29 C          66.5761   92.5397   12.2561 C.3     1  UNL1        0.0096
     30 C          66.1529   93.9741   12.1405 C.3     1  UNL1        0.0871
     31 C          66.3139   94.7010   10.8383 C.2     1  UNL1        0.2443
     32 O          67.6254   94.6567   10.1118 O.2     1  UNL1       -0.2730
     33 N          65.1634   95.4722   10.2627 N.am    1  UNL1       -0.1970
     34 O          65.3244   96.1991    8.9605 O.3     1  UNL1       -0.2952
     35 H          64.3026   95.5014   10.7395 H       1  UNL1        0.1822
     36 H          66.2258   96.0687    8.6267 H       1  UNL1        0.2414
@<TRIPOS>BOND
     1    10    11    1
     2    11    12   ar
     3    12    13   ar
     4    13    14   ar
     5    14     1    1
     6     1     2   ar
     7     2     3   ar
     8     3    19    1
     9    19    20    1
    10    20    21    1
    11    21    22    1
    12    22    23    1
    13    23    24    1
    14     3     4   ar
    15     4     5   ar
    16     5     6   ar
    17     6     7   ar
    18     7    25    1
    19    25    26    1
    20    26    27    1
    21    27    28    1
    22    28    29    1
    23    29    30    1
    24    30    31    1
    25    31    32    2
    26    31    33   am
    27    33    34    1
    28     7     8   ar
    29     8     9   ar
    30    14    15   ar
    31    15    16   ar
    32    16    11   ar
    33     9     1   ar
    34    24    19    1
    35     8     4   ar
    36    10    17    1
    37    10    18    1
    38    33    35    1
    39    34    36    1
@<TRIPOS>MOLECULE
*****
 36 39 0 0 0
SMALL
GASTEIGER

@<TRIPOS>ATOM
      1 C          61.8542   86.7216   11.0573 C.ar    1  UNL1        0.1668
      2 N          61.8376   85.2411   11.2972 N.ar    1  UNL1       -0.2102
      3 C          62.6098   84.6582   12.4436 C.ar    1  UNL1        0.1543
      4 C          63.3984   85.5561   13.3501 C.ar    1  UNL1        0.1485
      5 N          64.2503   85.2715   14.5515 N.ar    1  UNL1       -0.2194
      6 C          64.7934   86.5763   15.0541 C.ar    1  UNL1        0.1798
      7 N          64.2771   87.6673   14.1634 N.ar    1  UNL1       -0.2944
      8 C          63.4150   87.0367   13.1103 C.ar    1  UNL1        0.1672
      9 N          62.6428   87.6195   11.9639 N.ar    1  UNL1       -0.2077
     10 N          58.7657   89.0530    6.4719 N.pl3   1  UNL1       -0.3426
     11 C          59.5378   88.4701    7.6182 C.ar    1  UNL1        0.1254
     12 C          60.1852   89.3754    8.6239 C.ar    1  UNL1        0.0340
     13 C          60.9573   88.7926    9.7702 C.ar    1  UNL1        0.0075
     14 C          61.0820   87.3044    9.9109 C.ar    1  UNL1        0.0551
     15 C          60.4347   86.3992    8.9054 C.ar    1  UNL1        0.1033
     16 N          59.6625   86.9820    7.7589 N.ar    1  UNL1       -0.2295
     17 H          58.6839   90.0297    6.3795 H       1  UNL1        0.1437
     18 H          58.3408   88.4588    5.8119 H       1  UNL1        0.1437
     19 N          62.5932   83.1776   12.6834 N.pl3   1  UNL1       -0.2868
     20 C          62.0991   82.6352   13.9917 C.3     1  UNL1        0.1243
     21 C          62.0825   81.1546   14.2316 C.3     1  UNL1        0.1636
     22 O          62.5599   80.2164   13.1630 O.3     1  UNL1       -0.3501
     23 C          63.0540   80.7588   11.8547 C.3     1  UNL1        0.1636
     24 C          63.0706   82.2394   11.6148 C.3     1  UNL1        0.1243
     25 C          64.5713   89.1316   14.3016 C.3     1  UNL1        0.1090
     26 C          63.5794   90.1453   13.8131 C.3     1  UNL1        0.0246
     27 C          64.0195   91.2382   12.8849 C.3     1  UNL1        0.0020
     28 C          65.3969   91.8188   13.0095 C.3     1  UNL1        0.0006
     29 C          65.8444   92.8974   12.0680 C.3     1  UNL1        0.0096
     30 C          66.8671   92.5953   11.0130 C.3     1  UNL1        0.0871
     31 C          67.2148   93.6325    9.9867 C.2     1  UNL1        0.2443
     32 O          68.6519   93.9124    9.6604 O.2     1  UNL1       -0.2730
     33 N          66.1256   94.3897    9.2867 N.am    1  UNL1       -0.1970
     34 O          66.4733   95.4268    8.2604 O.3     1  UNL1       -0.2952
     35 H          65.1824   94.2059    9.5009 H       1  UNL1        0.1822
     36 H          67.4376   95.4824    8.1707 H       1  UNL1        0.2414
@<TRIPOS>BOND
     1    10    11    1
     2    11    12   ar
     3    12    13   ar
     4    13    14   ar
     5    14     1    1
     6     1     2   ar
     7     2     3   ar
     8     3    19    1
     9    19    20    1
    10    20    21    1
    11    21    22    1
    12    22    23    1
    13    23    24    1
    14     3     4   ar
    15     4     5   ar
    16     5     6   ar
    17     6     7   ar
    18     7    25    1
    19    25    26    1
    20    26    27    1
    21    27    28    1
    22    28    29    1
    23    29    30    1
    24    30    31    1
    25    31    32    2
    26    31    33   am
    27    33    34    1
    28     7     8   ar
    29     8     9   ar
    30    14    15   ar
    31    15    16   ar
    32    16    11   ar
    33     9     1   ar
    34    24    19    1
    35     8     4   ar
    36    10    17    1
    37    10    18    1
    38    33    35    1
    39    34    36    1
@<TRIPOS>MOLECULE
*****
 36 39 0 0 0
SMALL
GASTEIGER

@<TRIPOS>ATOM
      1 C          63.4457   86.9999   13.1277 C.ar    1  UNL1        0.1668
      2 N          64.0932   88.0125   14.0250 N.ar    1  UNL1       -0.2102
      3 C          64.0112   89.4725   13.6904 C.ar    1  UNL1        0.1543
      4 C          63.2816   89.9197   12.4585 C.ar    1  UNL1        0.1485
      5 N          63.0360   91.2798   11.8757 N.ar    1  UNL1       -0.2194
      6 C          62.2367   91.1078   10.6181 C.ar    1  UNL1        0.1798
      7 N          61.9882   89.6413   10.4238 N.ar    1  UNL1       -0.2944
      8 C          62.6340   88.9070   11.5612 C.ar    1  UNL1        0.1672
      9 N          62.7161   87.4471   11.8958 N.ar    1  UNL1       -0.2077
     10 N          63.7740   81.1602   14.4660 N.pl3   1  UNL1       -0.3426
     11 C          63.6919   82.6201   14.1314 C.ar    1  UNL1        0.1254
     12 C          64.3434   83.6325   15.0263 C.ar    1  UNL1        0.0340
     13 C          64.2613   85.0924   14.6917 C.ar    1  UNL1        0.0075
     14 C          63.5277   85.5399   13.4622 C.ar    1  UNL1        0.0551
     15 C          62.8763   84.5277   12.5674 C.ar    1  UNL1        0.1033
     16 N          62.9583   83.0677   12.9020 N.ar    1  UNL1       -0.2295
     17 H          64.2554   80.8665   15.2729 H       1  UNL1        0.1437
     18 H          63.3464   80.4958   13.8787 H       1  UNL1        0.1437
     19 N          64.6588   90.4851   14.5878 N.pl3   1  UNL1       -0.2868
     20 C          63.9285   90.9926   15.7957 C.3     1  UNL1        0.1243
     21 C          64.5760   92.0052   16.6932 C.3     1  UNL1        0.1636
     22 O          65.9538   92.5102   16.3826 O.3     1  UNL1       -0.3501
     23 C          66.6841   92.0028   15.1747 C.3     1  UNL1        0.1636
     24 C          66.0366   90.9902   14.2772 C.3     1  UNL1        0.1243
     25 C          61.2275   89.0185    9.2909 C.3     1  UNL1        0.1090
     26 C          60.4627   87.7469    9.5104 C.3     1  UNL1        0.0246
     27 C          59.4575   87.2915    8.4945 C.3     1  UNL1        0.0020
     28 C          59.4036   87.9471    7.1464 C.3     1  UNL1        0.0006
     29 C          59.0555   89.4017    7.0331 C.3     1  UNL1        0.0096
     30 C          59.1663   90.0985    5.7094 C.3     1  UNL1        0.0871
     31 C          58.0857   91.0386    5.2638 C.2     1  UNL1        0.2443
     32 O          58.4417   92.4063    4.7614 O.2     1  UNL1       -0.2730
     33 N          56.6492   90.6108    5.3206 N.am    1  UNL1       -0.1970
     34 O          55.5686   91.5509    4.8750 O.3     1  UNL1       -0.2952
     35 H          56.4156   89.7131    5.6503 H       1  UNL1        0.1822
     36 H          55.9666   92.3855    4.5821 H       1  UNL1        0.2414
@<TRIPOS>BOND
     1    10    11    1
     2    11    12   ar
     3    12    13   ar
     4    13    14   ar
     5    14     1    1
     6     1     2   ar
     7     2     3   ar
     8     3    19    1
     9    19    20    1
    10    20    21    1
    11    21    22    1
    12    22    23    1
    13    23    24    1
    14     3     4   ar
    15     4     5   ar
    16     5     6   ar
    17     6     7   ar
    18     7    25    1
    19    25    26    1
    20    26    27    1
    21    27    28    1
    22    28    29    1
    23    29    30    1
    24    30    31    1
    25    31    32    2
    26    31    33   am
    27    33    34    1
    28     7     8   ar
    29     8     9   ar
    30    14    15   ar
    31    15    16   ar
    32    16    11   ar
    33     9     1   ar
    34    24    19    1
    35     8     4   ar
    36    10    17    1
    37    10    18    1
    38    33    35    1
    39    34    36    1
@<TRIPOS>MOLECULE
*****
 36 39 0 0 0
SMALL
GASTEIGER

@<TRIPOS>ATOM
      1 C          63.1454   88.8480   12.0841 C.ar    1  UNL1        0.1668
      2 N          63.3070   87.4360   12.5634 N.ar    1  UNL1       -0.2102
      3 C          62.5707   86.3226   11.8789 C.ar    1  UNL1        0.1543
      4 C          61.6729   86.6215   10.7150 C.ar    1  UNL1        0.1485
      5 N          60.8255   85.7379    9.8483 N.ar    1  UNL1       -0.2194
      6 C          60.1402   86.6040    8.8333 C.ar    1  UNL1        0.1798
      7 N          60.5640   88.0229    9.0727 N.ar    1  UNL1       -0.2944
      8 C          61.5113   88.0337   10.2358 C.ar    1  UNL1        0.1672
      9 N          62.2475   89.1469   10.9203 N.ar    1  UNL1       -0.2077
     10 N          66.0903   93.3012   14.8222 N.pl3   1  UNL1       -0.3426
     11 C          65.3541   92.1879   14.1377 C.ar    1  UNL1        0.1254
     12 C          65.1229   90.8901   14.8535 C.ar    1  UNL1        0.0340
     13 C          64.3866   89.7769   14.1689 C.ar    1  UNL1        0.0075
     14 C          63.8816   89.9614   12.7686 C.ar    1  UNL1        0.0551
     15 C          64.1128   91.2591   12.0528 C.ar    1  UNL1        0.1033
     16 N          64.8491   92.3724   12.7374 N.ar    1  UNL1       -0.2295
     17 H          66.4218   93.1801   15.7413 H       1  UNL1        0.1437
     18 H          66.2420   94.1529   14.3524 H       1  UNL1        0.1437
     19 N          62.7324   84.9105   12.3582 N.pl3   1  UNL1       -0.2868
     20 C          62.8816   83.7945   11.3671 C.3     1  UNL1        0.1243
     21 C          63.0433   82.3823   11.8464 C.3     1  UNL1        0.1636
     22 O          63.0558   82.0862   13.3168 O.3     1  UNL1       -0.3501
     23 C          62.9066   83.2022   14.3079 C.3     1  UNL1        0.1636
     24 C          62.7449   84.6144   13.8286 C.3     1  UNL1        0.1243
     25 C          60.1187   89.2206    8.2871 C.3     1  UNL1        0.1090
     26 C          59.3321   89.0382    7.0230 C.3     1  UNL1        0.0246
     27 C          58.9526   90.2315    6.1972 C.3     1  UNL1        0.0020
     28 C          59.9601   90.8609    5.2813 C.3     1  UNL1        0.0006
     29 C          59.5902   92.0732    4.4791 C.3     1  UNL1        0.0096
     30 C          60.4565   92.5079    3.3342 C.3     1  UNL1        0.0871
     31 C          59.8752   93.3343    2.2256 C.2     1  UNL1        0.2443
     32 O          60.0236   94.8268    2.2457 O.2     1  UNL1       -0.2730
     33 N          59.1457   92.6683    1.0969 N.am    1  UNL1       -0.1970
     34 O          58.5645   93.4948   -0.0118 O.3     1  UNL1       -0.2952
     35 H          59.0484   91.6888    1.0837 H       1  UNL1        0.1822
     36 H          58.7482   94.4328    0.1536 H       1  UNL1        0.2414
@<TRIPOS>BOND
     1    10    11    1
     2    11    12   ar
     3    12    13   ar
     4    13    14   ar
     5    14     1    1
     6     1     2   ar
     7     2     3   ar
     8     3    19    1
     9    19    20    1
    10    20    21    1
    11    21    22    1
    12    22    23    1
    13    23    24    1
    14     3     4   ar
    15     4     5   ar
    16     5     6   ar
    17     6     7   ar
    18     7    25    1
    19    25    26    1
    20    26    27    1
    21    27    28    1
    22    28    29    1
    23    29    30    1
    24    30    31    1
    25    31    32    2
    26    31    33   am
    27    33    34    1
    28     7     8   ar
    29     8     9   ar
    30    14    15   ar
    31    15    16   ar
    32    16    11   ar
    33     9     1   ar
    34    24    19    1
    35     8     4   ar
    36    10    17    1
    37    10    18    1
    38    33    35    1
    39    34    36    1
@<TRIPOS>MOLECULE
*****
 36 39 0 0 0
SMALL
GASTEIGER

@<TRIPOS>ATOM
      1 C          62.3137   87.9810   11.6410 C.ar    1  UNL1        0.1668
      2 N          62.8968   89.2016   12.2890 N.ar    1  UNL1       -0.2102
      3 C          63.7845   89.0617   13.4900 C.ar    1  UNL1        0.1543
      4 C          64.0891   87.7010   14.0429 C.ar    1  UNL1        0.1485
      5 N          64.9240   87.2542   15.2063 N.ar    1  UNL1       -0.2194
      6 C          64.8568   85.7574   15.2772 C.ar    1  UNL1        0.1798
      7 N          63.9805   85.2791   14.1577 N.ar    1  UNL1       -0.2944
      8 C          63.5060   86.4803   13.3949 C.ar    1  UNL1        0.1672
      9 N          62.6183   86.6204   12.1939 N.ar    1  UNL1       -0.2077
     10 N          58.7629   88.5407    6.8369 N.pl3   1  UNL1       -0.3426
     11 C          59.6506   88.4008    8.0379 C.ar    1  UNL1        0.1254
     12 C          60.0560   87.0382    8.5163 C.ar    1  UNL1        0.0340
     13 C          60.9437   86.8983    9.7173 C.ar    1  UNL1        0.0075
     14 C          61.4260   88.1210   10.4399 C.ar    1  UNL1        0.0551
     15 C          61.0207   89.4836    9.9616 C.ar    1  UNL1        0.1033
     16 N          60.1329   89.6236    8.7605 N.ar    1  UNL1       -0.2295
     17 H          58.4463   87.7382    6.3626 H       1  UNL1        0.1437
     18 H          58.4969   89.4351    6.5230 H       1  UNL1        0.1437
     19 N          64.3676   90.2824   14.1381 N.pl3   1  UNL1       -0.2868
     20 C          63.9326   90.6793   15.5177 C.3     1  UNL1        0.1243
     21 C          64.5156   91.9000   16.1658 C.3     1  UNL1        0.1636
     22 O          65.5336   92.7237   15.4342 O.3     1  UNL1       -0.3501
     23 C          65.9685   92.3268   14.0546 C.3     1  UNL1        0.1636
     24 C          65.3855   91.1061   13.4065 C.3     1  UNL1        0.1243
     25 C          63.6387   83.8504   13.8543 C.3     1  UNL1        0.1090
     26 C          62.8823   83.0309   14.8574 C.3     1  UNL1        0.0246
     27 C          61.7289   82.1804   14.4143 C.3     1  UNL1        0.0020
     28 C          61.9814   80.8377   13.7953 C.3     1  UNL1        0.0006
     29 C          63.0830   80.6698   12.7911 C.3     1  UNL1        0.0096
     30 C          62.8404   81.0031   11.3489 C.3     1  UNL1        0.0871
     31 C          63.4410   82.2423   10.7542 C.2     1  UNL1        0.2443
     32 O          64.8023   82.1891   10.1266 O.2     1  UNL1       -0.2730
     33 N          62.6803   83.5346   10.7870 N.am    1  UNL1       -0.1970
     34 O          63.2809   84.7737   10.1923 O.3     1  UNL1       -0.2952
     35 H          61.7868   83.5695   11.1989 H       1  UNL1        0.1822
     36 H          64.1574   84.5672    9.8316 H       1  UNL1        0.2414
@<TRIPOS>BOND
     1    10    11    1
     2    11    12   ar
     3    12    13   ar
     4    13    14   ar
     5    14     1    1
     6     1     2   ar
     7     2     3   ar
     8     3    19    1
     9    19    20    1
    10    20    21    1
    11    21    22    1
    12    22    23    1
    13    23    24    1
    14     3     4   ar
    15     4     5   ar
    16     5     6   ar
    17     6     7   ar
    18     7    25    1
    19    25    26    1
    20    26    27    1
    21    27    28    1
    22    28    29    1
    23    29    30    1
    24    30    31    1
    25    31    32    2
    26    31    33   am
    27    33    34    1
    28     7     8   ar
    29     8     9   ar
    30    14    15   ar
    31    15    16   ar
    32    16    11   ar
    33     9     1   ar
    34    24    19    1
    35     8     4   ar
    36    10    17    1
    37    10    18    1
    38    33    35    1
    39    34    36    1
@<TRIPOS>MOLECULE
*****
 36 39 0 0 0
SMALL
GASTEIGER

@<TRIPOS>ATOM
      1 C          61.8110   87.3913   10.8822 C.ar    1  UNL1        0.1668
      2 N          62.0588   85.9315   11.1217 N.ar    1  UNL1       -0.2102
      3 C          62.8793   85.4932   12.2985 C.ar    1  UNL1        0.1543
      4 C          63.4518   86.5148   13.2358 C.ar    1  UNL1        0.1485
      5 N          64.2932   86.3839   14.4707 N.ar    1  UNL1       -0.2194
      6 C          64.5654   87.7629   14.9944 C.ar    1  UNL1        0.1798
      7 N          63.8922   88.7460   14.0832 N.ar    1  UNL1       -0.2944
      8 C          63.2039   87.9746   12.9963 C.ar    1  UNL1        0.1672
      9 N          62.3835   88.4129   11.8196 N.ar    1  UNL1       -0.2077
     10 N          58.5294   89.1446    6.1751 N.pl3   1  UNL1       -0.3426
     11 C          59.3498   88.7063    7.3518 C.ar    1  UNL1        0.1254
     12 C          59.4621   87.2484    7.6866 C.ar    1  UNL1        0.0340
     13 C          60.2825   86.8101    8.8634 C.ar    1  UNL1        0.0075
     14 C          60.9906   87.8297    9.7054 C.ar    1  UNL1        0.0551
     15 C          60.8783   89.2875    9.3707 C.ar    1  UNL1        0.1033
     16 N          60.0579   89.7259    8.1939 N.ar    1  UNL1       -0.2295
     17 H          58.0646   88.4754    5.6224 H       1  UNL1        0.1437
     18 H          58.4557   90.1014    5.9554 H       1  UNL1        0.1437
     19 N          63.1271   84.0332   12.5379 N.pl3   1  UNL1       -0.2868
     20 C          64.0080   83.2589   11.6029 C.3     1  UNL1        0.1243
     21 C          64.2559   81.7990   11.8422 C.3     1  UNL1        0.1636
     22 O          63.6228   81.1135   13.0166 O.3     1  UNL1       -0.3501
     23 C          62.7419   81.8879   13.9517 C.3     1  UNL1        0.1636
     24 C          62.4940   83.3478   13.7123 C.3     1  UNL1        0.1243
     25 C          63.9050   90.2385   14.2327 C.3     1  UNL1        0.1090
     26 C          65.2084   90.9665   14.3783 C.3     1  UNL1        0.0246
     27 C          65.6895   91.3783   15.7380 C.3     1  UNL1        0.0020
     28 C          66.1348   92.7901   15.9802 C.3     1  UNL1        0.0006
     29 C          67.5935   93.1357   15.9293 C.3     1  UNL1        0.0096
     30 C          68.4968   92.4354   14.9579 C.3     1  UNL1        0.0871
     31 C          68.1921   92.4726   13.4896 C.2     1  UNL1        0.2443
     32 O          68.8831   91.5235   12.5560 O.2     1  UNL1       -0.2730
     33 N          67.1964   93.4589   12.9551 N.am    1  UNL1       -0.1970
     34 O          66.8917   93.4960   11.4868 O.3     1  UNL1       -0.2952
     35 H          66.7429   94.0818   13.5678 H       1  UNL1        0.1822
     36 H          67.4198   92.8228   11.0298 H       1  UNL1        0.2414
@<TRIPOS>BOND
     1    10    11    1
     2    11    12   ar
     3    12    13   ar
     4    13    14   ar
     5    14     1    1
     6     1     2   ar
     7     2     3   ar
     8     3    19    1
     9    19    20    1
    10    20    21    1
    11    21    22    1
    12    22    23    1
    13    23    24    1
    14     3     4   ar
    15     4     5   ar
    16     5     6   ar
    17     6     7   ar
    18     7    25    1
    19    25    26    1
    20    26    27    1
    21    27    28    1
    22    28    29    1
    23    29    30    1
    24    30    31    1
    25    31    32    2
    26    31    33   am
    27    33    34    1
    28     7     8   ar
    29     8     9   ar
    30    14    15   ar
    31    15    16   ar
    32    16    11   ar
    33     9     1   ar
    34    24    19    1
    35     8     4   ar
    36    10    17    1
    37    10    18    1
    38    33    35    1
    39    34    36    1
