@<TRIPOS>MOLECULE
*****
 27 30 0 0 0
SMALL
GASTEIGER

@<TRIPOS>ATOM
      1 O          60.7574   89.4684    8.5702 O.2     1  UNL1       -0.2719
      2 C          61.2730   88.9395    9.8758 C.2     1  UNL1        0.2570
      3 N          62.3030   89.7133   10.6442 N.am    1  UNL1       -0.2738
      4 C          62.8174   91.0159   10.1070 C.3     1  UNL1        0.1149
      5 C          63.8474   91.7896   10.8755 C.3     1  UNL1        0.1121
      6 N          64.3629   91.2607   12.1810 N.pl3   1  UNL1       -0.3071
      7 C          63.8485   89.9581   12.7182 C.3     1  UNL1        0.1121
      8 C          62.8185   89.1844   11.9498 C.3     1  UNL1        0.1149
      9 C          65.3930   92.0345   12.9495 C.2     1  UNL1        0.0295
     10 C          65.6744   93.4647   12.5962 C.2     1  UNL1        0.0120
     11 C          66.7044   94.2385   13.3647 C.2     1  UNL1        0.0216
     12 C          67.4529   93.5817   14.4865 C.2     1  UNL1        0.1008
     13 N          68.5165   94.0880   15.4152 N.2     1  UNL1       -0.1482
     14 N          68.8923   92.9705   16.3425 N.2     1  UNL1       -0.1467
     15 C          68.0610   91.7736   15.9869 C.2     1  UNL1        0.1198
     16 C          67.1714   92.1514   14.8398 C.2     1  UNL1        0.0238
     17 C          66.1414   91.3777   14.0713 C.3     1  UNL1        0.0705
     18 C          60.7586   87.6369   10.4129 C.3     1  UNL1        0.2096
     19 O          59.3726   87.5547   10.9804 O.3     1  UNL1       -0.3719
     20 H          58.9481   88.4250   10.9244 H       1  UNL1        0.2114
     21 C          61.6303   86.4165   10.3826 C.ar    1  UNL1        0.0131
     22 C          61.8502   85.6206   11.6348 C.ar    1  UNL1       -0.0010
     23 C          62.7219   84.4003   11.6045 C.ar    1  UNL1        0.0065
     24 C          63.3737   83.9759   10.3219 C.ar    1  UNL1        0.0345
     25 BR         64.2453   82.7555   10.2916 Br      1  UNL1       -0.0490
     26 C          63.1538   84.7718    9.0696 C.ar    1  UNL1        0.0065
     27 C          62.2821   85.9921    9.1000 C.ar    1  UNL1       -0.0010
@<TRIPOS>BOND
     1     1     2    2
     2     2    18    1
     3    18    19    1
     4    18    21    1
     5    21    22   ar
     6    22    23   ar
     7    23    24   ar
     8    24    25    1
     9    24    26   ar
    10    26    27   ar
    11     2     3   am
    12     3     4    1
    13     4     5    1
    14     5     6    1
    15     6     9    1
    16     9    10    2
    17    10    11    1
    18    11    12    2
    19    12    13    1
    20    13    14    2
    21    14    15    1
    22    15    16    2
    23    16    17    1
    24     6     7    1
    25     7     8    1
    26    27    21   ar
    27     8     3    1
    28    17     9    1
    29    16    12    1
    30    19    20    1
@<TRIPOS>MOLECULE
*****
 27 30 0 0 0
SMALL
GASTEIGER

@<TRIPOS>ATOM
      1 O          60.2339   89.4015    7.8496 O.2     1  UNL1       -0.2719
      2 C          60.7197   88.5394    8.9768 C.2     1  UNL1        0.2570
      3 N          61.5541   89.1358   10.0714 N.am    1  UNL1       -0.2738
      4 C          61.9025   90.5944   10.0388 C.3     1  UNL1        0.1149
      5 C          62.7369   91.1908   11.1335 C.3     1  UNL1        0.1121
      6 N          63.2227   90.3287   12.2606 N.pl3   1  UNL1       -0.3071
      7 C          62.8742   88.8701   12.2933 C.3     1  UNL1        0.1121
      8 C          62.0399   88.2736   11.1987 C.3     1  UNL1        0.1149
      9 C          64.0570   90.9251   13.3553 C.2     1  UNL1        0.0295
     10 C          63.6777   90.7084   14.7902 C.2     1  UNL1        0.0120
     11 C          64.5121   91.3048   15.8849 C.2     1  UNL1        0.0216
     12 C          65.7257   92.1178   15.5445 C.2     1  UNL1        0.1008
     13 N          66.7331   92.8248   16.4021 N.2     1  UNL1       -0.1482
     14 N          67.7350   93.4784   15.4971 N.2     1  UNL1       -0.1467
     15 C          67.3469   93.1754   14.0802 C.2     1  UNL1        0.1198
     16 C          66.1051   92.3345   14.1095 C.2     1  UNL1        0.0238
     17 C          65.2707   91.7381   13.0149 C.3     1  UNL1        0.0705
     18 C          60.3713   87.0808    9.0094 C.3     1  UNL1        0.2096
     19 O          58.9877   86.6319    8.6434 O.3     1  UNL1       -0.3719
     20 H          58.4477   87.4039    8.4126 H       1  UNL1        0.2114
     21 C          61.4065   86.0711    9.4082 C.ar    1  UNL1        0.0131
     22 C          61.4433   85.5500   10.8143 C.ar    1  UNL1       -0.0010
     23 C          62.4785   84.5404   11.2131 C.ar    1  UNL1        0.0065
     24 C          63.4769   84.0519   10.2058 C.ar    1  UNL1        0.0345
     25 BR         64.5121   83.0423   10.6046 Br      1  UNL1       -0.0490
     26 C          63.4401   84.5730    8.7997 C.ar    1  UNL1        0.0065
     27 C          62.4048   85.5826    8.4010 C.ar    1  UNL1       -0.0010
@<TRIPOS>BOND
     1     1     2    2
     2     2    18    1
     3    18    19    1
     4    18    21    1
     5    21    22   ar
     6    22    23   ar
     7    23    24   ar
     8    24    25    1
     9    24    26   ar
    10    26    27   ar
    11     2     3   am
    12     3     4    1
    13     4     5    1
    14     5     6    1
    15     6     9    1
    16     9    10    2
    17    10    11    1
    18    11    12    2
    19    12    13    1
    20    13    14    2
    21    14    15    1
    22    15    16    2
    23    16    17    1
    24     6     7    1
    25     7     8    1
    26    27    21   ar
    27     8     3    1
    28    17     9    1
    29    16    12    1
    30    19    20    1
@<TRIPOS>MOLECULE
*****
 27 30 0 0 0
SMALL
GASTEIGER

@<TRIPOS>ATOM
      1 O          63.3289   91.3941   12.6432 O.2     1  UNL1       -0.2719
      2 C          63.7364   90.4221   13.7105 C.2     1  UNL1        0.2570
      3 N          63.6276   88.9467   13.4624 N.am    1  UNL1       -0.2738
      4 C          63.1114   88.4435   12.1470 C.3     1  UNL1        0.1149
      5 C          63.0026   86.9681   11.8990 C.3     1  UNL1        0.1121
      6 N          63.4101   85.9961   12.9662 N.pl3   1  UNL1       -0.3071
      7 C          63.9264   86.4993   14.2815 C.3     1  UNL1        0.1121
      8 C          64.0351   87.9747   14.5296 C.3     1  UNL1        0.1149
      9 C          63.3013   84.5207   12.7181 C.2     1  UNL1        0.0295
     10 C          63.9556   83.9125   11.5132 C.2     1  UNL1        0.0120
     11 C          63.8468   82.4371   11.2652 C.2     1  UNL1        0.0216
     12 C          63.0837   81.5700   12.2222 C.2     1  UNL1        0.1008
     13 N          62.8072   80.0958   12.2391 N.2     1  UNL1       -0.1482
     14 N          61.9820   79.7930   13.4546 N.2     1  UNL1       -0.1467
     15 C          61.7485   81.0800   14.1888 C.2     1  UNL1        0.1198
     16 C          62.4295   82.1783   13.4272 C.2     1  UNL1        0.0238
     17 C          62.5382   83.6536   13.6751 C.3     1  UNL1        0.0705
     18 C          64.2527   90.9253   15.0258 C.3     1  UNL1        0.2096
     19 O          63.4010   90.8193   16.2559 O.3     1  UNL1       -0.3719
     20 H          62.5542   90.4048   16.0281 H       1  UNL1        0.2114
     21 C          65.6208   91.5347   15.1109 C.ar    1  UNL1        0.0131
     22 C          65.9745   92.4254   16.2648 C.ar    1  UNL1       -0.0010
     23 C          67.3425   93.0348   16.3499 C.ar    1  UNL1        0.0065
     24 C          68.3568   92.7533   15.2813 C.ar    1  UNL1        0.0345
     25 BR         69.7248   93.3626   15.3664 Br      1  UNL1       -0.0490
     26 C          68.0031   91.8625   14.1274 C.ar    1  UNL1        0.0065
     27 C          66.6350   91.2532   14.0423 C.ar    1  UNL1       -0.0010
@<TRIPOS>BOND
     1     1     2    2
     2     2    18    1
     3    18    19    1
     4    18    21    1
     5    21    22   ar
     6    22    23   ar
     7    23    24   ar
     8    24    25    1
     9    24    26   ar
    10    26    27   ar
    11     2     3   am
    12     3     4    1
    13     4     5    1
    14     5     6    1
    15     6     9    1
    16     9    10    2
    17    10    11    1
    18    11    12    2
    19    12    13    1
    20    13    14    2
    21    14    15    1
    22    15    16    2
    23    16    17    1
    24     6     7    1
    25     7     8    1
    26    27    21   ar
    27     8     3    1
    28    17     9    1
    29    16    12    1
    30    19    20    1
@<TRIPOS>MOLECULE
*****
 27 30 0 0 0
SMALL
GASTEIGER

@<TRIPOS>ATOM
      1 O          65.9795   90.7896   15.1923 O.2     1  UNL1       -0.2719
      2 C          65.5252   91.5185   13.9626 C.2     1  UNL1        0.2570
      3 N          64.5826   90.8550   13.0027 N.am    1  UNL1       -0.2738
      4 C          64.0943   89.4627   13.2725 C.3     1  UNL1        0.1149
      5 C          63.1517   88.7992   12.3126 C.3     1  UNL1        0.1121
      6 N          62.6975   89.5281   11.0829 N.pl3   1  UNL1       -0.3071
      7 C          63.1858   90.9205   10.8130 C.3     1  UNL1        0.1121
      8 C          64.1284   91.5840   11.7729 C.3     1  UNL1        0.1149
      9 C          61.7549   88.8647   10.1229 C.2     1  UNL1        0.0295
     10 C          60.5047   89.5714    9.6901 C.2     1  UNL1        0.0120
     11 C          59.5621   88.9080    8.7301 C.2     1  UNL1        0.0216
     12 C          59.8699   87.5378    8.2031 C.2     1  UNL1        0.1008
     13 N          59.1349   86.6396    7.2528 N.2     1  UNL1       -0.1482
     14 N          59.9310   85.3777    7.0984 N.2     1  UNL1       -0.1467
     15 C          61.1579   85.4960    7.9532 C.2     1  UNL1        0.1198
     16 C          61.1201   86.8311    8.6359 C.2     1  UNL1        0.0238
     17 C          62.0627   87.4945    9.5958 C.3     1  UNL1        0.0705
     18 C          66.0135   92.9109   13.6927 C.3     1  UNL1        0.2096
     19 O          66.0447   93.9224   14.7997 O.3     1  UNL1       -0.3719
     20 H          65.7187   93.5164   15.6180 H       1  UNL1        0.2114
     21 C          66.4706   93.2916   12.3156 C.ar    1  UNL1        0.0131
     22 C          67.2658   92.3206   11.4942 C.ar    1  UNL1       -0.0010
     23 C          67.7229   92.7012   10.1172 C.ar    1  UNL1        0.0065
     24 C          67.3847   94.0528    9.5616 C.ar    1  UNL1        0.0345
     25 BR         67.8418   94.4335    8.1845 Br      1  UNL1       -0.0490
     26 C          66.5895   95.0238   10.3829 C.ar    1  UNL1        0.0065
     27 C          66.1324   94.6431   11.7600 C.ar    1  UNL1       -0.0010
@<TRIPOS>BOND
     1     1     2    2
     2     2    18    1
     3    18    19    1
     4    18    21    1
     5    21    22   ar
     6    22    23   ar
     7    23    24   ar
     8    24    25    1
     9    24    26   ar
    10    26    27   ar
    11     2     3   am
    12     3     4    1
    13     4     5    1
    14     5     6    1
    15     6     9    1
    16     9    10    2
    17    10    11    1
    18    11    12    2
    19    12    13    1
    20    13    14    2
    21    14    15    1
    22    15    16    2
    23    16    17    1
    24     6     7    1
    25     7     8    1
    26    27    21   ar
    27     8     3    1
    28    17     9    1
    29    16    12    1
    30    19    20    1
@<TRIPOS>MOLECULE
*****
 27 30 0 0 0
SMALL
GASTEIGER

@<TRIPOS>ATOM
      1 O          64.8809   90.2215   15.0055 O.2     1  UNL1       -0.2719
      2 C          64.1019   89.7257   13.8233 C.2     1  UNL1        0.2570
      3 N          63.8700   88.2550   13.6413 N.am    1  UNL1       -0.2738
      4 C          64.4170   87.2801   14.6414 C.3     1  UNL1        0.1149
      5 C          64.1850   85.8093   14.4593 C.3     1  UNL1        0.1121
      6 N          63.4061   85.3136   13.2772 N.pl3   1  UNL1       -0.3071
      7 C          62.8590   86.2885   12.2771 C.3     1  UNL1        0.1121
      8 C          63.0910   87.7593   12.4592 C.3     1  UNL1        0.1149
      9 C          63.1741   83.8428   13.0951 C.2     1  UNL1        0.0295
     10 C          62.7615   82.9982   14.2639 C.2     1  UNL1        0.0120
     11 C          62.5295   81.5274   14.0818 C.2     1  UNL1        0.0216
     12 C          62.7102   80.9014   12.7307 C.2     1  UNL1        0.1008
     13 N          62.5545   79.4890   12.2501 N.2     1  UNL1       -0.1482
     14 N          62.8709   79.4608   10.7841 N.2     1  UNL1       -0.1467
     15 C          63.2222   80.8557   10.3588 C.2     1  UNL1        0.1198
     16 C          63.1228   81.7460   11.5618 C.2     1  UNL1        0.0238
     17 C          63.3548   83.2167   11.7440 C.3     1  UNL1        0.0705
     18 C          63.5549   90.7007   12.8233 C.3     1  UNL1        0.2096
     19 O          62.1060   90.6475   12.4391 O.3     1  UNL1       -0.3719
     20 H          61.6687   89.9309   12.9251 H       1  UNL1        0.2114
     21 C          64.4569   91.7289   12.2074 C.ar    1  UNL1        0.0131
     22 C          64.3574   92.0324   10.7418 C.ar    1  UNL1       -0.0010
     23 C          65.2594   93.0606   10.1259 C.ar    1  UNL1        0.0065
     24 C          66.2609   93.7852   10.9756 C.ar    1  UNL1        0.0345
     25 BR         67.1629   94.8133   10.3597 Br      1  UNL1       -0.0490
     26 C          66.3604   93.4816   12.4412 C.ar    1  UNL1        0.0065
     27 C          65.4584   92.4534   13.0570 C.ar    1  UNL1       -0.0010
@<TRIPOS>BOND
     1     1     2    2
     2     2    18    1
     3    18    19    1
     4    18    21    1
     5    21    22   ar
     6    22    23   ar
     7    23    24   ar
     8    24    25    1
     9    24    26   ar
    10    26    27   ar
    11     2     3   am
    12     3     4    1
    13     4     5    1
    14     5     6    1
    15     6     9    1
    16     9    10    2
    17    10    11    1
    18    11    12    2
    19    12    13    1
    20    13    14    2
    21    14    15    1
    22    15    16    2
    23    16    17    1
    24     6     7    1
    25     7     8    1
    26    27    21   ar
    27     8     3    1
    28    17     9    1
    29    16    12    1
    30    19    20    1
@<TRIPOS>MOLECULE
*****
 27 30 0 0 0
SMALL
GASTEIGER

@<TRIPOS>ATOM
      1 O          47.5777   71.2699   19.1415 O.2     1  UNL1       -0.2719
      2 C          46.4356   72.0529   18.5648 C.2     1  UNL1        0.2570
      3 N          46.4402   73.5510   18.6388 N.am    1  UNL1       -0.2738
      4 C          47.5869   74.2662   19.2896 C.3     1  UNL1        0.1149
      5 C          47.5915   75.7644   19.3637 C.3     1  UNL1        0.1121
      6 N          46.4495   76.5473   18.7870 N.pl3   1  UNL1       -0.3071
      7 C          45.3027   75.8321   18.1362 C.3     1  UNL1        0.1121
      8 C          45.2981   74.3340   18.0622 C.3     1  UNL1        0.1149
      9 C          46.4540   78.0456   18.8610 C.2     1  UNL1        0.0295
     10 C          47.7489   78.7971   18.7692 C.2     1  UNL1        0.0120
     11 C          47.7534   80.2953   18.8433 C.2     1  UNL1        0.0216
     12 C          46.4630   81.0419   19.0091 C.2     1  UNL1        0.1008
     13 N          46.1572   82.5067   19.1125 N.2     1  UNL1       -0.1482
     14 N          44.6732   82.6604   19.2682 N.2     1  UNL1       -0.1467
     15 C          44.0620   81.2906   19.2611 C.2     1  UNL1        0.1198
     16 C          45.1682   80.2903   19.1010 C.2     1  UNL1        0.0238
     17 C          45.1637   78.7921   19.0269 C.3     1  UNL1        0.0705
     18 C          45.2889   71.3377   17.9140 C.3     1  UNL1        0.2096
     19 O          43.9772   71.2153   18.6311 O.3     1  UNL1       -0.3719
     20 H          44.0400   71.6493   19.4963 H       1  UNL1        0.2114
     21 C          45.4539   70.7449   16.5460 C.ar    1  UNL1        0.0131
     22 C          44.6484   71.2747   15.3969 C.ar    1  UNL1       -0.0010
     23 C          44.8134   70.6819   14.0289 C.ar    1  UNL1        0.0065
     24 C          45.7840   69.5594   13.8100 C.ar    1  UNL1        0.0345
     25 BR         45.9490   68.9666   12.4420 Br      1  UNL1       -0.0490
     26 C          46.5896   69.0296   14.9591 C.ar    1  UNL1        0.0065
     27 C          46.4245   69.6224   16.3271 C.ar    1  UNL1       -0.0010
@<TRIPOS>BOND
     1     1     2    2
     2     2    18    1
     3    18    19    1
     4    18    21    1
     5    21    22   ar
     6    22    23   ar
     7    23    24   ar
     8    24    25    1
     9    24    26   ar
    10    26    27   ar
    11     2     3   am
    12     3     4    1
    13     4     5    1
    14     5     6    1
    15     6     9    1
    16     9    10    2
    17    10    11    1
    18    11    12    2
    19    12    13    1
    20    13    14    2
    21    14    15    1
    22    15    16    2
    23    16    17    1
    24     6     7    1
    25     7     8    1
    26    27    21   ar
    27     8     3    1
    28    17     9    1
    29    16    12    1
    30    19    20    1
@<TRIPOS>MOLECULE
*****
 27 30 0 0 0
SMALL
GASTEIGER

@<TRIPOS>ATOM
      1 O          48.4982   74.0299   19.7464 O.2     1  UNL1       -0.2719
      2 C          47.0685   74.2162   19.3326 C.2     1  UNL1        0.2570
      3 N          46.5674   75.5798   18.9592 N.am    1  UNL1       -0.2738
      4 C          47.4960   76.7571   18.9996 C.3     1  UNL1        0.1149
      5 C          46.9948   78.1207   18.6263 C.3     1  UNL1        0.1121
      6 N          45.5651   78.3070   18.2125 N.pl3   1  UNL1       -0.3071
      7 C          44.6365   77.1297   18.1721 C.3     1  UNL1        0.1121
      8 C          45.1376   75.7661   18.5455 C.3     1  UNL1        0.1149
      9 C          45.0639   79.6707   17.8391 C.2     1  UNL1        0.0295
     10 C          44.5477   80.5965   18.9003 C.2     1  UNL1        0.0120
     11 C          44.0465   81.9602   18.5269 C.2     1  UNL1        0.0216
     12 C          44.0616   82.3978   17.0922 C.2     1  UNL1        0.1008
     13 N          43.6352   83.6730   16.4274 N.2     1  UNL1       -0.1482
     14 N          43.8879   83.5352   14.9553 N.2     1  UNL1       -0.1467
     15 C          44.4705   82.1749   14.7103 C.2     1  UNL1        0.1198
     16 C          44.5779   81.4719   16.0310 C.2     1  UNL1        0.0238
     17 C          45.0790   80.1083   16.4045 C.3     1  UNL1        0.0705
     18 C          46.1399   73.0389   19.2922 C.3     1  UNL1        0.2096
     19 O          45.4164   72.6113   20.5346 O.3     1  UNL1       -0.3719
     20 H          45.6596   73.1974   21.2682 H       1  UNL1        0.2114
     21 C          45.9348   72.2892   18.0092 C.ar    1  UNL1        0.0131
     22 C          45.0706   72.8716   16.9303 C.ar    1  UNL1       -0.0010
     23 C          44.8655   72.1219   15.6473 C.ar    1  UNL1        0.0065
     24 C          45.5245   70.7900   15.4433 C.ar    1  UNL1        0.0345
     25 BR         45.3193   70.0404   14.1603 Br      1  UNL1       -0.0490
     26 C          46.3886   70.2076   16.5222 C.ar    1  UNL1        0.0065
     27 C          46.5937   70.9573   17.8052 C.ar    1  UNL1       -0.0010
@<TRIPOS>BOND
     1     1     2    2
     2     2    18    1
     3    18    19    1
     4    18    21    1
     5    21    22   ar
     6    22    23   ar
     7    23    24   ar
     8    24    25    1
     9    24    26   ar
    10    26    27   ar
    11     2     3   am
    12     3     4    1
    13     4     5    1
    14     5     6    1
    15     6     9    1
    16     9    10    2
    17    10    11    1
    18    11    12    2
    19    12    13    1
    20    13    14    2
    21    14    15    1
    22    15    16    2
    23    16    17    1
    24     6     7    1
    25     7     8    1
    26    27    21   ar
    27     8     3    1
    28    17     9    1
    29    16    12    1
    30    19    20    1
@<TRIPOS>MOLECULE
*****
 27 30 0 0 0
SMALL
GASTEIGER

@<TRIPOS>ATOM
      1 O          64.5883   88.5096   15.3351 O.2     1  UNL1       -0.2719
      2 C          64.1097   89.3247   14.1703 C.2     1  UNL1        0.2570
      3 N          63.5332   88.6436   12.9646 N.am    1  UNL1       -0.2738
      4 C          63.4353   87.1474   12.9237 C.3     1  UNL1        0.1149
      5 C          62.8588   86.4662   11.7179 C.3     1  UNL1        0.1121
      6 N          62.3803   87.2813   10.5533 N.pl3   1  UNL1       -0.3071
      7 C          62.4781   88.7775   10.5942 C.3     1  UNL1        0.1121
      8 C          63.0546   89.4587   11.7999 C.3     1  UNL1        0.1149
      9 C          61.8037   86.6002    9.3475 C.2     1  UNL1        0.0295
     10 C          60.3401   86.7243    9.0441 C.2     1  UNL1        0.0120
     11 C          59.7636   86.0432    7.8384 C.2     1  UNL1        0.0216
     12 C          60.6509   85.2380    6.9360 C.2     1  UNL1        0.1008
     13 N          60.3692   84.4602    5.6847 N.2     1  UNL1       -0.1482
     14 N          61.6589   83.8554    5.2148 N.2     1  UNL1       -0.1467
     15 C          62.7377   84.2593    6.1756 C.2     1  UNL1        0.1198
     16 C          62.1146   85.1138    7.2394 C.2     1  UNL1        0.0238
     17 C          62.6911   85.7949    8.4452 C.3     1  UNL1        0.0705
     18 C          64.2076   90.8210   14.2113 C.3     1  UNL1        0.2096
     19 O          63.0157   91.6605   13.8586 O.3     1  UNL1       -0.3719
     20 H          62.2703   91.0836   13.6295 H       1  UNL1        0.2114
     21 C          65.4975   91.4776   14.6050 C.ar    1  UNL1        0.0131
     22 C          66.6742   91.4365   13.6757 C.ar    1  UNL1       -0.0010
     23 C          67.9641   92.0931   14.0694 C.ar    1  UNL1        0.0065
     24 C          68.0773   92.7909   15.3924 C.ar    1  UNL1        0.0345
     25 BR         69.3672   93.4475   15.7860 Br      1  UNL1       -0.0490
     26 C          66.9006   92.8321   16.3217 C.ar    1  UNL1        0.0065
     27 C          65.6107   92.1754   15.9279 C.ar    1  UNL1       -0.0010
@<TRIPOS>BOND
     1     1     2    2
     2     2    18    1
     3    18    19    1
     4    18    21    1
     5    21    22   ar
     6    22    23   ar
     7    23    24   ar
     8    24    25    1
     9    24    26   ar
    10    26    27   ar
    11     2     3   am
    12     3     4    1
    13     4     5    1
    14     5     6    1
    15     6     9    1
    16     9    10    2
    17    10    11    1
    18    11    12    2
    19    12    13    1
    20    13    14    2
    21    14    15    1
    22    15    16    2
    23    16    17    1
    24     6     7    1
    25     7     8    1
    26    27    21   ar
    27     8     3    1
    28    17     9    1
    29    16    12    1
    30    19    20    1
@<TRIPOS>MOLECULE
*****
 27 30 0 0 0
SMALL
GASTEIGER

@<TRIPOS>ATOM
      1 O          64.3776   88.4914   15.4960 O.2     1  UNL1       -0.2719
      2 C          63.9798   89.3018   14.2981 C.2     1  UNL1        0.2570
      3 N          63.4476   88.6186   13.0734 N.am    1  UNL1       -0.2738
      4 C          63.3132   87.1249   13.0465 C.3     1  UNL1        0.1149
      5 C          62.7810   86.4417   11.8217 C.3     1  UNL1        0.1121
      6 N          62.3832   87.2521   10.6239 N.pl3   1  UNL1       -0.3071
      7 C          62.5176   88.7458   10.6508 C.3     1  UNL1        0.1121
      8 C          63.0498   89.4291   11.8755 C.3     1  UNL1        0.1149
      9 C          61.8510   86.5689    9.3991 C.2     1  UNL1        0.0295
     10 C          60.3877   86.6393    9.0771 C.2     1  UNL1        0.0120
     11 C          59.8555   85.9561    7.8523 C.2     1  UNL1        0.0216
     12 C          60.7867   85.2025    6.9496 C.2     1  UNL1        0.1008
     13 N          60.5536   84.4354    5.6819 N.2     1  UNL1       -0.1482
     14 N          61.8729   83.8908    5.2204 N.2     1  UNL1       -0.1467
     15 C          62.9214   84.3214    6.2029 C.2     1  UNL1        0.1198
     16 C          62.2501   85.1321    7.2716 C.2     1  UNL1        0.0238
     17 C          62.7822   85.8153    8.4964 C.3     1  UNL1        0.0705
     18 C          64.1142   90.7955   14.3249 C.3     1  UNL1        0.2096
     19 O          63.4299   91.5910   15.3967 O.3     1  UNL1       -0.3719
     20 H          62.9469   90.9909   15.9862 H       1  UNL1        0.2114
     21 C          64.9330   91.4938   13.2798 C.ar    1  UNL1        0.0131
     22 C          66.4000   91.7151   13.5007 C.ar    1  UNL1       -0.0010
     23 C          67.2188   92.4133   12.4556 C.ar    1  UNL1        0.0065
     24 C          66.5706   92.8901   11.1897 C.ar    1  UNL1        0.0345
     25 BR         67.3894   93.5883   10.1447 Br      1  UNL1       -0.0490
     26 C          65.1036   92.6688   10.9689 C.ar    1  UNL1        0.0065
     27 C          64.2848   91.9705   12.0140 C.ar    1  UNL1       -0.0010
@<TRIPOS>BOND
     1     1     2    2
     2     2    18    1
     3    18    19    1
     4    18    21    1
     5    21    22   ar
     6    22    23   ar
     7    23    24   ar
     8    24    25    1
     9    24    26   ar
    10    26    27   ar
    11     2     3   am
    12     3     4    1
    13     4     5    1
    14     5     6    1
    15     6     9    1
    16     9    10    2
    17    10    11    1
    18    11    12    2
    19    12    13    1
    20    13    14    2
    21    14    15    1
    22    15    16    2
    23    16    17    1
    24     6     7    1
    25     7     8    1
    26    27    21   ar
    27     8     3    1
    28    17     9    1
    29    16    12    1
    30    19    20    1
