@<TRIPOS>MOLECULE
*****
 30 33 0 0 0
SMALL
GASTEIGER

@<TRIPOS>ATOM
      1 C          60.5329   92.7545    2.6695 C.3     1  UNL1        0.0521
      2 C          60.3111   93.5285    1.4039 C.ar    1  UNL1        0.0612
      3 C          58.9668   93.5092    0.7388 C.ar    1  UNL1        0.0195
      4 C          58.7450   94.2831   -0.5268 C.ar    1  UNL1        0.0603
      5 C          59.8675   95.0764   -1.1274 C.ar    1  UNL1        0.0555
      6 C          59.9467   95.9309   -2.3576 C.ar    1  UNL1        0.0824
      7 C          58.8288   96.1922   -3.3230 C.3     1  UNL1        0.0540
      8 N          61.3400   96.4784   -2.4528 N.ar    1  UNL1       -0.1681
      9 N          62.1219   95.9622   -1.2815 N.ar    1  UNL1       -0.2125
     10 C          61.2118   95.0957   -0.4623 C.ar    1  UNL1        0.1646
     11 N          61.4336   94.3217    0.8033 N.ar    1  UNL1       -0.2309
     12 C          63.5612   96.2601   -0.9819 C.ar    1  UNL1        0.0844
     13 C          64.5311   96.4801   -2.1048 C.ar    1  UNL1        0.0192
     14 C          65.9703   96.7780   -1.8051 C.ar    1  UNL1        0.0015
     15 C          66.4396   96.8560   -0.3825 C.ar    1  UNL1        0.0001
     16 C          65.4697   96.6360    0.7404 C.ar    1  UNL1        0.0015
     17 C          64.0305   96.3381    0.4407 C.ar    1  UNL1        0.0192
     18 C          57.4006   94.2638   -1.1919 C.2     1  UNL1        0.2647
     19 O          57.0425   93.1471   -2.1271 O.2     1  UNL1       -0.2684
     20 N          56.4143   95.3612   -0.9217 N.am    1  UNL1       -0.2023
     21 H          56.6494   96.0942   -0.3079 H       1  UNL1        0.1776
     22 N          55.0699   95.3419   -1.5868 N.2     1  UNL1       -0.1773
     23 C          54.8054   96.2259   -2.7694 C.2     1  UNL1        0.1176
     24 C          53.4611   96.2066   -3.4344 C.ar    1  UNL1        0.0207
     25 C          52.2142   96.1363   -2.6035 C.ar    1  UNL1        0.0025
     26 C          50.8698   96.1169   -3.2686 C.ar    1  UNL1        0.0114
     27 C          50.7723   96.1679   -4.7645 C.ar    1  UNL1        0.0577
     28 CL         49.4280   96.1485   -5.4295 Cl      1  UNL1       -0.0822
     29 C          52.0192   96.2382   -5.5954 C.ar    1  UNL1        0.0114
     30 C          53.3635   96.2575   -4.9304 C.ar    1  UNL1        0.0025
@<TRIPOS>BOND
     1     1     2    1
     2     2     3   ar
     3     3     4   ar
     4     4    18    1
     5    18    19    2
     6    18    20   am
     7    20    22    1
     8    22    23    2
     9    23    24    1
    10    24    25   ar
    11    25    26   ar
    12    26    27   ar
    13    27    28    1
    14    27    29   ar
    15    29    30   ar
    16     4     5   ar
    17     5     6   ar
    18     6     7    1
    19     6     8   ar
    20     8     9   ar
    21     9    12    1
    22    12    13   ar
    23    13    14   ar
    24    14    15   ar
    25    15    16   ar
    26    16    17   ar
    27     9    10   ar
    28    10    11   ar
    29    11     2   ar
    30    30    24   ar
    31    10     5   ar
    32    17    12   ar
    33    20    21    1
@<TRIPOS>MOLECULE
*****
 30 33 0 0 0
SMALL
GASTEIGER

@<TRIPOS>ATOM
      1 C          60.4344   86.5230    9.5353 C.3     1  UNL1        0.0521
      2 C          61.3877   86.4674   10.6921 C.ar    1  UNL1        0.0612
      3 C          62.0767   87.7161   11.1568 C.ar    1  UNL1        0.0195
      4 C          63.0300   87.6605   12.3136 C.ar    1  UNL1        0.0603
      5 C          63.2943   86.3563   13.0057 C.ar    1  UNL1        0.0555
      6 C          64.1757   85.9955   14.1645 C.ar    1  UNL1        0.0824
      7 C          65.0482   86.9405   14.9363 C.3     1  UNL1        0.0540
      8 N          64.0315   84.5237   14.4160 N.ar    1  UNL1       -0.1681
      9 N          63.0609   83.9750   13.4126 N.ar    1  UNL1       -0.2125
     10 C          62.6052   85.1076   12.5410 C.ar    1  UNL1        0.1646
     11 N          61.6520   85.1632   11.3842 N.ar    1  UNL1       -0.2309
     12 C          62.6228   82.5448   13.3005 C.ar    1  UNL1        0.0844
     13 C          61.6269   81.9869   14.2737 C.ar    1  UNL1        0.0192
     14 C          61.1888   80.5568   14.1615 C.ar    1  UNL1        0.0015
     15 C          61.7466   79.6844   13.0762 C.ar    1  UNL1        0.0001
     16 C          62.7425   80.2422   12.1030 C.ar    1  UNL1        0.0015
     17 C          63.1806   81.6724   12.2152 C.ar    1  UNL1        0.0192
     18 C          63.7190   88.9093   12.7782 C.2     1  UNL1        0.2647
     19 O          63.8997   90.0615   11.8349 O.2     1  UNL1       -0.2684
     20 N          64.2273   89.0059   14.1862 N.am    1  UNL1       -0.2023
     21 H          64.1087   88.2497   14.8053 H       1  UNL1        0.1776
     22 N          64.9164   90.2547   14.6508 N.2     1  UNL1       -0.1773
     23 C          66.3777   90.4516   14.3758 C.2     1  UNL1        0.1176
     24 C          67.0666   91.7003   14.8405 C.ar    1  UNL1        0.0207
     25 C          68.2092   91.6107   15.8082 C.ar    1  UNL1        0.0025
     26 C          68.8982   92.8596   16.2729 C.ar    1  UNL1        0.0114
     27 C          68.4445   94.1979   15.7698 C.ar    1  UNL1        0.0577
     28 CL         69.1335   95.4466   16.2345 Cl      1  UNL1       -0.0822
     29 C          67.3019   94.2875   14.8021 C.ar    1  UNL1        0.0114
     30 C          66.6130   93.0387   14.3375 C.ar    1  UNL1        0.0025
@<TRIPOS>BOND
     1     1     2    1
     2     2     3   ar
     3     3     4   ar
     4     4    18    1
     5    18    19    2
     6    18    20   am
     7    20    22    1
     8    22    23    2
     9    23    24    1
    10    24    25   ar
    11    25    26   ar
    12    26    27   ar
    13    27    28    1
    14    27    29   ar
    15    29    30   ar
    16     4     5   ar
    17     5     6   ar
    18     6     7    1
    19     6     8   ar
    20     8     9   ar
    21     9    12    1
    22    12    13   ar
    23    13    14   ar
    24    14    15   ar
    25    15    16   ar
    26    16    17   ar
    27     9    10   ar
    28    10    11   ar
    29    11     2   ar
    30    30    24   ar
    31    10     5   ar
    32    17    12   ar
    33    20    21    1
@<TRIPOS>MOLECULE
*****
 30 33 0 0 0
SMALL
GASTEIGER

@<TRIPOS>ATOM
      1 C          64.1014   88.4785   14.9584 C.3     1  UNL1        0.0521
      2 C          63.5606   87.9224   13.6745 C.ar    1  UNL1        0.0612
      3 C          63.1871   88.8479   12.5547 C.ar    1  UNL1        0.0195
      4 C          62.6463   88.2918   11.2709 C.ar    1  UNL1        0.0603
      5 C          62.4789   86.8102   11.1068 C.ar    1  UNL1        0.0555
      6 C          61.9747   85.9773    9.9658 C.ar    1  UNL1        0.0824
      7 C          61.4931   86.4940    8.6425 C.3     1  UNL1        0.0540
      8 N          62.0365   84.5371   10.3804 N.ar    1  UNL1       -0.1681
      9 N          62.5789   84.4798   11.7777 N.ar    1  UNL1       -0.2125
     10 C          62.8524   85.8848   12.2267 C.ar    1  UNL1        0.1646
     11 N          63.3932   86.4409   13.5105 N.ar    1  UNL1       -0.2309
     12 C          62.8078   83.2361   12.5844 C.ar    1  UNL1        0.0844
     13 C          62.5628   81.8891   11.9717 C.ar    1  UNL1        0.0192
     14 C          62.7916   80.6455   12.7785 C.ar    1  UNL1        0.0015
     15 C          63.2655   80.7488   14.1979 C.ar    1  UNL1        0.0001
     16 C          63.5105   82.0959   14.8106 C.ar    1  UNL1        0.0015
     17 C          63.2816   83.3395   14.0039 C.ar    1  UNL1        0.0192
     18 C          62.2728   89.2173   10.1510 C.2     1  UNL1        0.2647
     19 O          63.2310   90.2827    9.7074 O.2     1  UNL1       -0.2684
     20 N          60.9412   89.0774    9.4749 N.am    1  UNL1       -0.2023
     21 H          60.3124   88.3782    9.7660 H       1  UNL1        0.1776
     22 N          60.5678   90.0030    8.3550 N.2     1  UNL1       -0.1773
     23 C          60.1796   89.4444    7.0181 C.2     1  UNL1        0.1176
     24 C          59.8062   90.3699    5.8984 C.ar    1  UNL1        0.0207
     25 C          58.3722   90.7596    5.6941 C.ar    1  UNL1        0.0025
     26 C          57.9988   91.6852    4.5742 C.ar    1  UNL1        0.0114
     27 C          59.0594   92.2210    3.6588 C.ar    1  UNL1        0.0577
     28 CL         58.6859   93.1465    2.5390 Cl      1  UNL1       -0.0822
     29 C          60.4934   91.8313    3.8631 C.ar    1  UNL1        0.0114
     30 C          60.8668   90.9057    4.9829 C.ar    1  UNL1        0.0025
@<TRIPOS>BOND
     1     1     2    1
     2     2     3   ar
     3     3     4   ar
     4     4    18    1
     5    18    19    2
     6    18    20   am
     7    20    22    1
     8    22    23    2
     9    23    24    1
    10    24    25   ar
    11    25    26   ar
    12    26    27   ar
    13    27    28    1
    14    27    29   ar
    15    29    30   ar
    16     4     5   ar
    17     5     6   ar
    18     6     7    1
    19     6     8   ar
    20     8     9   ar
    21     9    12    1
    22    12    13   ar
    23    13    14   ar
    24    14    15   ar
    25    15    16   ar
    26    16    17   ar
    27     9    10   ar
    28    10    11   ar
    29    11     2   ar
    30    30    24   ar
    31    10     5   ar
    32    17    12   ar
    33    20    21    1
@<TRIPOS>MOLECULE
*****
 30 33 0 0 0
SMALL
GASTEIGER

@<TRIPOS>ATOM
      1 C          59.5990   89.6915   12.6134 C.3     1  UNL1        0.0521
      2 C          60.0471   88.8370   11.4649 C.ar    1  UNL1        0.0612
      3 C          59.7486   89.2572   10.0563 C.ar    1  UNL1        0.0195
      4 C          60.1967   88.4027    8.9078 C.ar    1  UNL1        0.0603
      5 C          60.9432   87.1279    9.1679 C.ar    1  UNL1        0.0555
      6 C          61.5069   86.0886    8.2449 C.ar    1  UNL1        0.0824
      7 C          61.4362   86.1084    6.7467 C.3     1  UNL1        0.0540
      8 N          62.1538   85.0260    9.0831 N.ar    1  UNL1       -0.1681
      9 N          61.9899   85.4086   10.5241 N.ar    1  UNL1       -0.2125
     10 C          61.2416   86.7077   10.5766 C.ar    1  UNL1        0.1646
     11 N          60.7936   87.5622   11.7251 N.ar    1  UNL1       -0.2309
     12 C          62.4868   84.6291   11.7054 C.ar    1  UNL1        0.0844
     13 C          62.3797   83.1330   11.7155 C.ar    1  UNL1        0.0192
     14 C          62.8767   82.3536   12.8968 C.ar    1  UNL1        0.0015
     15 C          63.4808   83.0702   14.0679 C.ar    1  UNL1        0.0001
     16 C          63.5880   84.5663   14.0577 C.ar    1  UNL1        0.0015
     17 C          63.0910   85.3457   12.8765 C.ar    1  UNL1        0.0192
     18 C          59.8982   88.8229    7.4991 C.2     1  UNL1        0.2647
     19 O          58.9797   87.9965    6.6486 O.2     1  UNL1       -0.2684
     20 N          60.5181   90.0696    6.9410 N.am    1  UNL1       -0.2023
     21 H          61.1210   90.6120    7.4993 H       1  UNL1        0.1776
     22 N          60.2196   90.4898    5.5323 N.2     1  UNL1       -0.1773
     23 C          61.1101   91.4786    4.8400 C.2     1  UNL1        0.1176
     24 C          60.8115   91.8989    3.4314 C.ar    1  UNL1        0.0207
     25 C          61.8705   91.7871    2.3750 C.ar    1  UNL1        0.0025
     26 C          61.5720   92.2073    0.9663 C.ar    1  UNL1        0.0114
     27 C          60.2144   92.7393    0.6141 C.ar    1  UNL1        0.0577
     28 CL         59.9159   93.1596   -0.7945 Cl      1  UNL1       -0.0822
     29 C          59.1555   92.8511    1.6705 C.ar    1  UNL1        0.0114
     30 C          59.4540   92.4309    3.0791 C.ar    1  UNL1        0.0025
@<TRIPOS>BOND
     1     1     2    1
     2     2     3   ar
     3     3     4   ar
     4     4    18    1
     5    18    19    2
     6    18    20   am
     7    20    22    1
     8    22    23    2
     9    23    24    1
    10    24    25   ar
    11    25    26   ar
    12    26    27   ar
    13    27    28    1
    14    27    29   ar
    15    29    30   ar
    16     4     5   ar
    17     5     6   ar
    18     6     7    1
    19     6     8   ar
    20     8     9   ar
    21     9    12    1
    22    12    13   ar
    23    13    14   ar
    24    14    15   ar
    25    15    16   ar
    26    16    17   ar
    27     9    10   ar
    28    10    11   ar
    29    11     2   ar
    30    30    24   ar
    31    10     5   ar
    32    17    12   ar
    33    20    21    1
@<TRIPOS>MOLECULE
*****
 30 33 0 0 0
SMALL
GASTEIGER

@<TRIPOS>ATOM
      1 C          62.3866   91.2312    9.7515 C.3     1  UNL1        0.0521
      2 C          62.7367   90.1535   10.7343 C.ar    1  UNL1        0.0612
      3 C          62.3769   88.7268   10.4427 C.ar    1  UNL1        0.0195
      4 C          62.7270   87.6491   11.4256 C.ar    1  UNL1        0.0603
      5 C          63.4369   87.9981   12.7000 C.ar    1  UNL1        0.0555
      6 C          63.9077   87.1571   13.8494 C.ar    1  UNL1        0.0824
      7 C          63.7546   85.6702   13.9748 C.3     1  UNL1        0.0540
      8 N          64.5585   88.0641   14.8514 N.ar    1  UNL1       -0.1681
      9 N          64.4899   89.4656   14.3213 N.ar    1  UNL1       -0.2125
     10 C          63.7966   89.4248   12.9916 C.ar    1  UNL1        0.1646
     11 N          63.4465   90.5025   12.0088 N.ar    1  UNL1       -0.2309
     12 C          65.0212   90.6925   15.0013 C.ar    1  UNL1        0.0844
     13 C          64.2509   91.3201   16.1250 C.ar    1  UNL1        0.0192
     14 C          64.7823   92.5470   16.8050 C.ar    1  UNL1        0.0015
     15 C          66.0838   93.1462   16.3613 C.ar    1  UNL1        0.0001
     16 C          66.8540   92.5186   15.2376 C.ar    1  UNL1        0.0015
     17 C          66.3227   91.2917   14.5576 C.ar    1  UNL1        0.0192
     18 C          62.3672   86.2224   11.1339 C.2     1  UNL1        0.2647
     19 O          60.9453   85.8548   10.8287 O.2     1  UNL1       -0.2684
     20 N          63.4292   85.1632   11.1476 N.am    1  UNL1       -0.2023
     21 H          64.3624   85.4044   11.3479 H       1  UNL1        0.1776
     22 N          63.0694   83.7365   10.8559 N.2     1  UNL1       -0.1773
     23 C          63.6559   82.6310   11.6828 C.2     1  UNL1        0.1176
     24 C          63.2961   81.2043   11.3911 C.ar    1  UNL1        0.0207
     25 C          63.3572   80.6880    9.9841 C.ar    1  UNL1        0.0025
     26 C          62.9973   79.2613    9.6925 C.ar    1  UNL1        0.0114
     27 C          62.5764   78.3509   10.8078 C.ar    1  UNL1        0.0577
     28 CL         62.2166   76.9242   10.5162 Cl      1  UNL1       -0.0822
     29 C          62.5154   78.8672   12.2149 C.ar    1  UNL1        0.0114
     30 C          62.8752   80.2939   12.5065 C.ar    1  UNL1        0.0025
@<TRIPOS>BOND
     1     1     2    1
     2     2     3   ar
     3     3     4   ar
     4     4    18    1
     5    18    19    2
     6    18    20   am
     7    20    22    1
     8    22    23    2
     9    23    24    1
    10    24    25   ar
    11    25    26   ar
    12    26    27   ar
    13    27    28    1
    14    27    29   ar
    15    29    30   ar
    16     4     5   ar
    17     5     6   ar
    18     6     7    1
    19     6     8   ar
    20     8     9   ar
    21     9    12    1
    22    12    13   ar
    23    13    14   ar
    24    14    15   ar
    25    15    16   ar
    26    16    17   ar
    27     9    10   ar
    28    10    11   ar
    29    11     2   ar
    30    30    24   ar
    31    10     5   ar
    32    17    12   ar
    33    20    21    1
@<TRIPOS>MOLECULE
*****
 30 33 0 0 0
SMALL
GASTEIGER

@<TRIPOS>ATOM
      1 C          63.1062   91.8344    9.5761 C.3     1  UNL1        0.0521
      2 C          63.3834   90.9642   10.7661 C.ar    1  UNL1        0.0612
      3 C          62.7394   89.6139   10.8740 C.ar    1  UNL1        0.0195
      4 C          63.0166   88.7437   12.0639 C.ar    1  UNL1        0.0603
      5 C          63.9378   89.2238   13.1459 C.ar    1  UNL1        0.0555
      6 C          64.3968   88.5924   14.4268 C.ar    1  UNL1        0.0824
      7 C          63.9981   87.2386   14.9347 C.3     1  UNL1        0.0540
      8 N          65.3246   89.5526   15.1105 N.ar    1  UNL1       -0.1681
      9 N          65.4389   90.7774   14.2522 N.ar    1  UNL1       -0.2125
     10 C          64.5818   90.5742   13.0380 C.ar    1  UNL1        0.1646
     11 N          64.3046   91.4444   11.8481 N.ar    1  UNL1       -0.2309
     12 C          66.2652   91.9922   14.5548 C.ar    1  UNL1        0.0844
     13 C          67.2636   91.9603   15.6738 C.ar    1  UNL1        0.0192
     14 C          68.0899   93.1751   15.9764 C.ar    1  UNL1        0.0015
     15 C          67.9177   94.4217   15.1601 C.ar    1  UNL1        0.0001
     16 C          66.9193   94.4535   14.0411 C.ar    1  UNL1        0.0015
     17 C          66.0930   93.2388   13.7385 C.ar    1  UNL1        0.0192
     18 C          62.3725   87.3932   12.1718 C.2     1  UNL1        0.2647
     19 O          60.9335   87.2157   11.7874 O.2     1  UNL1       -0.2684
     20 N          63.1675   86.2203   12.6641 N.am    1  UNL1       -0.2023
     21 H          64.1119   86.3368   12.9164 H       1  UNL1        0.1776
     22 N          62.5234   84.8699   12.7720 N.2     1  UNL1       -0.1773
     23 C          63.3222   83.6941   13.2510 C.2     1  UNL1        0.1176
     24 C          62.6781   82.3438   13.3588 C.ar    1  UNL1        0.0207
     25 C          63.2534   81.1767   12.6126 C.ar    1  UNL1        0.0025
     26 C          62.6093   79.8263   12.7205 C.ar    1  UNL1        0.0114
     27 C          61.3899   79.6430   13.5746 C.ar    1  UNL1        0.0577
     28 CL         60.7459   78.2927   13.6825 Cl      1  UNL1       -0.0822
     29 C          60.8146   80.8101   14.3209 C.ar    1  UNL1        0.0114
     30 C          61.4587   82.1605   14.2130 C.ar    1  UNL1        0.0025
@<TRIPOS>BOND
     1     1     2    1
     2     2     3   ar
     3     3     4   ar
     4     4    18    1
     5    18    19    2
     6    18    20   am
     7    20    22    1
     8    22    23    2
     9    23    24    1
    10    24    25   ar
    11    25    26   ar
    12    26    27   ar
    13    27    28    1
    14    27    29   ar
    15    29    30   ar
    16     4     5   ar
    17     5     6   ar
    18     6     7    1
    19     6     8   ar
    20     8     9   ar
    21     9    12    1
    22    12    13   ar
    23    13    14   ar
    24    14    15   ar
    25    15    16   ar
    26    16    17   ar
    27     9    10   ar
    28    10    11   ar
    29    11     2   ar
    30    30    24   ar
    31    10     5   ar
    32    17    12   ar
    33    20    21    1
