@<TRIPOS>MOLECULE
*****
 28 30 0 0 0
SMALL
GASTEIGER

@<TRIPOS>ATOM
      1 C          64.2393   88.2200   14.1846 C.3     1  UNL1        0.0719
      2 C          63.4273   87.7443   13.0164 C.ar    1  UNL1        0.1229
      3 N          62.7316   88.7368   12.1328 N.ar    1  UNL1       -0.2322
      4 C          61.9196   88.2612   10.9646 C.ar    1  UNL1        0.0872
      5 C          61.2240   89.2537   10.0810 C.ar    1  UNL1        0.0193
      6 C          60.4120   88.7781    8.9129 C.ar    1  UNL1        0.0016
      7 C          60.2958   87.3099    8.6285 C.ar    1  UNL1        0.0003
      8 C          60.9914   86.3174    9.5121 C.ar    1  UNL1        0.0063
      9 C          61.8034   86.7930   10.6802 C.ar    1  UNL1        0.0738
     10 C          62.4991   85.8005   11.5639 C.ar    1  UNL1        0.2631
     11 O          62.3828   84.3323   11.2795 O.2     1  UNL1       -0.2669
     12 N          63.3110   86.2761   12.7320 N.ar    1  UNL1       -0.2837
     13 C          59.7163   89.7706    8.0292 C.2     1  UNL1        0.0048
     14 C          59.3957   89.4140    6.6079 C.2     1  UNL1        0.0598
     15 C          58.6999   90.4065    5.7242 C.2     1  UNL1        0.2679
     16 O          59.5021   91.3853    4.9189 O.2     1  UNL1       -0.2681
     17 N          57.2021   90.4202    5.6458 N.am    1  UNL1       -0.1934
     18 O          56.5064   91.4127    4.7621 O.3     1  UNL1       -0.2949
     19 H          56.6756   89.7778    6.1743 H       1  UNL1        0.1825
     20 H          57.1661   91.9664    4.3158 H       1  UNL1        0.2414
     21 C          64.0068   85.2836   13.6157 C.3     1  UNL1        0.1148
     22 C          63.2072   84.4056   14.5321 C.3     1  UNL1        0.0510
     23 C          62.8954   82.9932   14.1345 C.ar    1  UNL1       -0.0202
     24 C          63.9010   82.1923   13.3617 C.ar    1  UNL1       -0.0042
     25 C          63.5892   80.7799   12.9641 C.ar    1  UNL1       -0.0003
     26 C          62.2719   80.1685   13.3394 C.ar    1  UNL1       -0.0000
     27 C          61.2663   80.9695   14.1122 C.ar    1  UNL1       -0.0003
     28 C          61.5781   82.3819   14.5098 C.ar    1  UNL1       -0.0042
@<TRIPOS>BOND
     1     1     2    1
     2     2     3   ar
     3     3     4   ar
     4     4     5   ar
     5     5     6   ar
     6     6    13    1
     7    13    14    2
     8    14    15    1
     9    15    16    2
    10    15    17   am
    11    17    18    1
    12     6     7   ar
    13     7     8   ar
    14     8     9   ar
    15     9    10   ar
    16    10    11    2
    17    10    12   ar
    18    12    21    1
    19    21    22    1
    20    22    23    1
    21    23    24   ar
    22    24    25   ar
    23    25    26   ar
    24    26    27   ar
    25    27    28   ar
    26    12     2   ar
    27    28    23   ar
    28     9     4   ar
    29    17    19    1
    30    18    20    1
@<TRIPOS>MOLECULE
*****
 28 30 0 0 0
SMALL
GASTEIGER

@<TRIPOS>ATOM
      1 C          62.3753   90.8059   10.4707 C.3     1  UNL1        0.0719
      2 C          62.7589   89.6444   11.3390 C.ar    1  UNL1        0.1229
      3 N          62.3728   88.2507   10.9411 N.ar    1  UNL1       -0.2322
      4 C          62.7564   87.0893   11.8094 C.ar    1  UNL1        0.0872
      5 C          62.3703   85.6956   11.4115 C.ar    1  UNL1        0.0193
      6 C          62.7540   84.5342   12.2798 C.ar    1  UNL1        0.0016
      7 C          63.5237   84.7666   13.5461 C.ar    1  UNL1        0.0003
      8 C          63.9098   86.1603   13.9440 C.ar    1  UNL1        0.0063
      9 C          63.5262   87.3216   13.0757 C.ar    1  UNL1        0.0738
     10 C          63.9123   88.7155   13.4736 C.ar    1  UNL1        0.2631
     11 O          64.6821   88.9478   14.7399 O.2     1  UNL1       -0.2669
     12 N          63.5287   89.8768   12.6053 N.ar    1  UNL1       -0.2837
     13 C          62.3678   83.1404   11.8818 C.2     1  UNL1        0.0048
     14 C          63.3926   82.0452   11.8964 C.2     1  UNL1        0.0598
     15 C          63.0065   80.6514   11.4985 C.2     1  UNL1        0.2679
     16 O          62.5743   79.6657   12.5433 O.2     1  UNL1       -0.2681
     17 N          63.0527   80.2433   10.0558 N.am    1  UNL1       -0.1934
     18 O          62.6666   78.8496    9.6580 O.3     1  UNL1       -0.2949
     19 H          63.3364   80.8903    9.3701 H       1  UNL1        0.1825
     20 H          62.4149   78.3458   10.4478 H       1  UNL1        0.2414
     21 C          63.9148   91.2706   13.0033 C.3     1  UNL1        0.1148
     22 C          65.2832   91.7916   12.6776 C.3     1  UNL1        0.0510
     23 C          66.2671   92.0550   13.7788 C.ar    1  UNL1       -0.0202
     24 C          65.7790   92.4222   15.1488 C.ar    1  UNL1       -0.0042
     25 C          66.7629   92.6856   16.2499 C.ar    1  UNL1       -0.0003
     26 C          68.2350   92.5816   15.9811 C.ar    1  UNL1       -0.0000
     27 C          68.7231   92.2143   14.6111 C.ar    1  UNL1       -0.0003
     28 C          67.7391   91.9510   13.5099 C.ar    1  UNL1       -0.0042
@<TRIPOS>BOND
     1     1     2    1
     2     2     3   ar
     3     3     4   ar
     4     4     5   ar
     5     5     6   ar
     6     6    13    1
     7    13    14    2
     8    14    15    1
     9    15    16    2
    10    15    17   am
    11    17    18    1
    12     6     7   ar
    13     7     8   ar
    14     8     9   ar
    15     9    10   ar
    16    10    11    2
    17    10    12   ar
    18    12    21    1
    19    21    22    1
    20    22    23    1
    21    23    24   ar
    22    24    25   ar
    23    25    26   ar
    24    26    27   ar
    25    27    28   ar
    26    12     2   ar
    27    28    23   ar
    28     9     4   ar
    29    17    19    1
    30    18    20    1
@<TRIPOS>MOLECULE
*****
 28 30 0 0 0
SMALL
GASTEIGER

@<TRIPOS>ATOM
      1 C          62.7754   91.0452   10.1648 C.3     1  UNL1        0.0719
      2 C          63.1531   90.0866   11.2551 C.ar    1  UNL1        0.1229
      3 N          62.7558   88.6436   11.1559 N.ar    1  UNL1       -0.2322
      4 C          63.1335   87.6851   12.2462 C.ar    1  UNL1        0.0872
      5 C          62.7362   86.2421   12.1470 C.ar    1  UNL1        0.0193
      6 C          63.1139   85.2836   13.2372 C.ar    1  UNL1        0.0016
      7 C          63.8890   85.7681   14.4265 C.ar    1  UNL1        0.0003
      8 C          64.2863   87.2111   14.5257 C.ar    1  UNL1        0.0063
      9 C          63.9086   88.1696   13.4355 C.ar    1  UNL1        0.0738
     10 C          64.3059   89.6126   13.5346 C.ar    1  UNL1        0.2631
     11 O          65.0810   90.0971   14.7239 O.2     1  UNL1       -0.2669
     12 N          63.9282   90.5711   12.4444 N.ar    1  UNL1       -0.2837
     13 C          62.7166   83.8405   13.1381 C.2     1  UNL1        0.0048
     14 C          62.7017   82.9806   14.3671 C.2     1  UNL1        0.0598
     15 C          62.3043   81.5376   14.2680 C.2     1  UNL1        0.2679
     16 O          63.3554   80.4675   14.2835 O.2     1  UNL1       -0.2681
     17 N          60.8560   81.1646   14.1534 N.am    1  UNL1       -0.1934
     18 O          60.4587   79.7216   14.0543 O.3     1  UNL1       -0.2949
     19 H          60.1661   81.8669   14.1432 H       1  UNL1        0.1825
     20 H          61.2529   79.1652   14.0787 H       1  UNL1        0.2414
     21 C          64.3255   92.0142   12.5435 C.3     1  UNL1        0.1148
     22 C          65.7755   92.3886   12.6306 C.3     1  UNL1        0.0510
     23 C          66.4309   93.1191   11.4962 C.ar    1  UNL1       -0.0202
     24 C          66.2183   94.5948   11.3320 C.ar    1  UNL1       -0.0042
     25 C          66.8737   95.3253   10.1977 C.ar    1  UNL1       -0.0003
     26 C          67.7417   94.5801    9.2275 C.ar    1  UNL1       -0.0000
     27 C          67.9543   93.1043    9.3917 C.ar    1  UNL1       -0.0003
     28 C          67.2988   92.3738   10.5261 C.ar    1  UNL1       -0.0042
@<TRIPOS>BOND
     1     1     2    1
     2     2     3   ar
     3     3     4   ar
     4     4     5   ar
     5     5     6   ar
     6     6    13    1
     7    13    14    2
     8    14    15    1
     9    15    16    2
    10    15    17   am
    11    17    18    1
    12     6     7   ar
    13     7     8   ar
    14     8     9   ar
    15     9    10   ar
    16    10    11    2
    17    10    12   ar
    18    12    21    1
    19    21    22    1
    20    22    23    1
    21    23    24   ar
    22    24    25   ar
    23    25    26   ar
    24    26    27   ar
    25    27    28   ar
    26    12     2   ar
    27    28    23   ar
    28     9     4   ar
    29    17    19    1
    30    18    20    1
@<TRIPOS>MOLECULE
*****
 28 30 0 0 0
SMALL
GASTEIGER

@<TRIPOS>ATOM
      1 C          61.0262   87.3233    9.0271 C.3     1  UNL1        0.0719
      2 C          61.8849   88.0486   10.0205 C.ar    1  UNL1        0.1229
      3 N          62.3825   89.4300    9.7143 N.ar    1  UNL1       -0.2322
      4 C          63.2412   90.1553   10.7078 C.ar    1  UNL1        0.0872
      5 C          63.7389   91.5367   10.4015 C.ar    1  UNL1        0.0193
      6 C          64.5975   92.2619   11.3949 C.ar    1  UNL1        0.0016
      7 C          64.9584   91.6056   12.6946 C.ar    1  UNL1        0.0003
      8 C          64.4607   90.2241   13.0008 C.ar    1  UNL1        0.0063
      9 C          63.6021   89.4990   12.0074 C.ar    1  UNL1        0.0738
     10 C          63.1044   88.1174   12.3136 C.ar    1  UNL1        0.2631
     11 O          63.4653   87.4611   13.6132 O.2     1  UNL1       -0.2669
     12 N          62.2458   87.3923   11.3202 N.ar    1  UNL1       -0.2837
     13 C          65.0952   93.6434   11.0888 C.2     1  UNL1        0.0048
     14 C          66.3364   93.8285   10.2671 C.2     1  UNL1        0.0598
     15 C          66.8342   95.2100    9.9609 C.2     1  UNL1        0.2679
     16 O          66.5790   96.3300   10.9255 O.2     1  UNL1       -0.2681
     17 N          67.5870   95.4715    8.6902 N.am    1  UNL1       -0.1934
     18 O          68.0847   96.8530    8.3841 O.3     1  UNL1       -0.2949
     19 H          67.7545   94.7364    8.0571 H       1  UNL1        0.1825
     20 H          67.8372   97.4529    9.1049 H       1  UNL1        0.2414
     21 C          61.7480   86.0107   11.6263 C.3     1  UNL1        0.1148
     22 C          62.5776   84.8162   11.2591 C.3     1  UNL1        0.0510
     23 C          62.6306   83.6296   12.1752 C.ar    1  UNL1       -0.0202
     24 C          62.7679   82.2485   11.6064 C.ar    1  UNL1       -0.0042
     25 C          62.8210   81.0619   12.5225 C.ar    1  UNL1       -0.0003
     26 C          62.7366   81.2565   14.0075 C.ar    1  UNL1       -0.0000
     27 C          62.5993   82.6376   14.5763 C.ar    1  UNL1       -0.0003
     28 C          62.5463   83.8242   13.6601 C.ar    1  UNL1       -0.0042
@<TRIPOS>BOND
     1     1     2    1
     2     2     3   ar
     3     3     4   ar
     4     4     5   ar
     5     5     6   ar
     6     6    13    1
     7    13    14    2
     8    14    15    1
     9    15    16    2
    10    15    17   am
    11    17    18    1
    12     6     7   ar
    13     7     8   ar
    14     8     9   ar
    15     9    10   ar
    16    10    11    2
    17    10    12   ar
    18    12    21    1
    19    21    22    1
    20    22    23    1
    21    23    24   ar
    22    24    25   ar
    23    25    26   ar
    24    26    27   ar
    25    27    28   ar
    26    12     2   ar
    27    28    23   ar
    28     9     4   ar
    29    17    19    1
    30    18    20    1
@<TRIPOS>MOLECULE
*****
 28 30 0 0 0
SMALL
GASTEIGER

@<TRIPOS>ATOM
      1 C          64.6110   89.4121   15.2768 C.3     1  UNL1        0.0719
      2 C          64.0046   88.8286   14.0351 C.ar    1  UNL1        0.1229
      3 N          63.8714   87.3413   13.8930 N.ar    1  UNL1       -0.2322
      4 C          63.2650   86.7578   12.6512 C.ar    1  UNL1        0.0872
      5 C          63.1318   85.2705   12.5092 C.ar    1  UNL1        0.0193
      6 C          62.5254   84.6871   11.2675 C.ar    1  UNL1        0.0016
      7 C          62.0522   85.5909   10.1679 C.ar    1  UNL1        0.0003
      8 C          62.1854   87.0782   10.3099 C.ar    1  UNL1        0.0063
      9 C          62.7918   87.6616   11.5516 C.ar    1  UNL1        0.0738
     10 C          62.9250   89.1490   11.6937 C.ar    1  UNL1        0.2631
     11 O          62.4518   90.0528   10.5941 O.2     1  UNL1       -0.2669
     12 N          63.5314   89.7324   12.9354 N.ar    1  UNL1       -0.2837
     13 C          62.3922   83.1997   11.1254 C.2     1  UNL1        0.0048
     14 C          62.8349   82.2973   12.2387 C.2     1  UNL1        0.0598
     15 C          62.7017   80.8099   12.0966 C.2     1  UNL1        0.2679
     16 O          62.3885   79.9669   13.2971 O.2     1  UNL1       -0.2681
     17 N          62.8816   80.1657   10.7540 N.am    1  UNL1       -0.1934
     18 O          62.7484   78.6784   10.6119 O.3     1  UNL1       -0.2949
     19 H          63.0871   80.7190    9.9661 H       1  UNL1        0.1825
     20 H          62.5461   78.2879   11.4765 H       1  UNL1        0.2414
     21 C          63.6647   91.2198   13.0776 C.3     1  UNL1        0.1148
     22 C          64.9413   91.8997   12.6802 C.3     1  UNL1        0.0510
     23 C          66.0196   92.1246   13.6983 C.ar    1  UNL1       -0.0202
     24 C          67.4581   91.9218   13.3245 C.ar    1  UNL1       -0.0042
     25 C          68.5364   92.1466   14.3426 C.ar    1  UNL1       -0.0003
     26 C          68.1764   92.5742   15.7346 C.ar    1  UNL1       -0.0000
     27 C          66.7379   92.7770   16.1084 C.ar    1  UNL1       -0.0003
     28 C          65.6595   92.5521   15.0902 C.ar    1  UNL1       -0.0042
@<TRIPOS>BOND
     1     1     2    1
     2     2     3   ar
     3     3     4   ar
     4     4     5   ar
     5     5     6   ar
     6     6    13    1
     7    13    14    2
     8    14    15    1
     9    15    16    2
    10    15    17   am
    11    17    18    1
    12     6     7   ar
    13     7     8   ar
    14     8     9   ar
    15     9    10   ar
    16    10    11    2
    17    10    12   ar
    18    12    21    1
    19    21    22    1
    20    22    23    1
    21    23    24   ar
    22    24    25   ar
    23    25    26   ar
    24    26    27   ar
    25    27    28   ar
    26    12     2   ar
    27    28    23   ar
    28     9     4   ar
    29    17    19    1
    30    18    20    1
@<TRIPOS>MOLECULE
*****
 28 30 0 0 0
SMALL
GASTEIGER

@<TRIPOS>ATOM
      1 C          64.9603   90.6686   14.7533 C.3     1  UNL1        0.0719
      2 C          64.2841   89.9931   13.5972 C.ar    1  UNL1        0.1229
      3 N          64.0007   88.5211   13.6499 N.ar    1  UNL1       -0.2322
      4 C          63.3245   87.8456   12.4938 C.ar    1  UNL1        0.0872
      5 C          63.0411   86.3736   12.5465 C.ar    1  UNL1        0.0193
      6 C          62.3649   85.6982   11.3904 C.ar    1  UNL1        0.0016
      7 C          61.9722   86.4948   10.1816 C.ar    1  UNL1        0.0003
      8 C          62.2557   87.9668   10.1289 C.ar    1  UNL1        0.0063
      9 C          62.9318   88.6422   11.2850 C.ar    1  UNL1        0.0738
     10 C          63.2153   90.1143   11.2323 C.ar    1  UNL1        0.2631
     11 O          62.8226   90.9109   10.0235 O.2     1  UNL1       -0.2669
     12 N          63.8915   90.7897   12.3884 N.ar    1  UNL1       -0.2837
     13 C          62.0815   84.2261   11.4431 C.2     1  UNL1        0.0048
     14 C          63.1603   83.2688   11.8548 C.2     1  UNL1        0.0598
     15 C          62.8769   81.7968   11.9075 C.2     1  UNL1        0.2679
     16 O          63.0312   80.9586   10.6732 O.2     1  UNL1       -0.2681
     17 N          62.4391   81.1629   13.1946 N.am    1  UNL1       -0.1934
     18 O          62.1556   79.6909   13.2472 O.3     1  UNL1       -0.2949
     19 H          62.3378   81.7130   14.0047 H       1  UNL1        0.1825
     20 H          62.3029   79.3017   12.3710 H       1  UNL1        0.2414
     21 C          64.1749   92.2618   12.3357 C.3     1  UNL1        0.1148
     22 C          65.5802   92.7611   12.4964 C.3     1  UNL1        0.0510
     23 C          66.3215   93.3088   11.3130 C.ar    1  UNL1       -0.0202
     24 C          66.1404   94.7430   10.9126 C.ar    1  UNL1       -0.0042
     25 C          66.8817   95.2906    9.7292 C.ar    1  UNL1       -0.0003
     26 C          67.8041   94.4041    8.9461 C.ar    1  UNL1       -0.0000
     27 C          67.9852   92.9699    9.3464 C.ar    1  UNL1       -0.0003
     28 C          67.2439   92.4222   10.5299 C.ar    1  UNL1       -0.0042
@<TRIPOS>BOND
     1     1     2    1
     2     2     3   ar
     3     3     4   ar
     4     4     5   ar
     5     5     6   ar
     6     6    13    1
     7    13    14    2
     8    14    15    1
     9    15    16    2
    10    15    17   am
    11    17    18    1
    12     6     7   ar
    13     7     8   ar
    14     8     9   ar
    15     9    10   ar
    16    10    11    2
    17    10    12   ar
    18    12    21    1
    19    21    22    1
    20    22    23    1
    21    23    24   ar
    22    24    25   ar
    23    25    26   ar
    24    26    27   ar
    25    27    28   ar
    26    12     2   ar
    27    28    23   ar
    28     9     4   ar
    29    17    19    1
    30    18    20    1
@<TRIPOS>MOLECULE
*****
 28 30 0 0 0
SMALL
GASTEIGER

@<TRIPOS>ATOM
      1 C          61.9414   85.0403   11.4062 C.3     1  UNL1        0.0719
      2 C          62.6489   86.0686   12.2382 C.ar    1  UNL1        0.1229
      3 N          62.7844   87.4756   11.7362 N.ar    1  UNL1       -0.2322
      4 C          63.4920   88.5038   12.5682 C.ar    1  UNL1        0.0872
      5 C          63.6275   89.9108   12.0663 C.ar    1  UNL1        0.0193
      6 C          64.3350   90.9390   12.8983 C.ar    1  UNL1        0.0016
      7 C          64.9069   90.5602   14.2322 C.ar    1  UNL1        0.0003
      8 C          64.7713   89.1532   14.7342 C.ar    1  UNL1        0.0063
      9 C          64.0639   88.1251   13.9022 C.ar    1  UNL1        0.0738
     10 C          63.9283   86.7180   14.4042 C.ar    1  UNL1        0.2631
     11 O          64.5002   86.3392   15.7381 O.2     1  UNL1       -0.2669
     12 N          63.2208   85.6898   13.5722 N.ar    1  UNL1       -0.2837
     13 C          64.4706   92.3460   12.3963 C.2     1  UNL1        0.0048
     14 C          65.7337   92.7804   11.7138 C.2     1  UNL1        0.0598
     15 C          65.8693   94.1875   11.2118 C.2     1  UNL1        0.2679
     16 O          66.1351   95.3053   12.1760 O.2     1  UNL1       -0.2681
     17 N          65.7390   94.4766    9.7458 N.am    1  UNL1       -0.1934
     18 O          65.8746   95.8836    9.2439 O.3     1  UNL1       -0.2949
     19 H          65.5645   93.7429    9.1129 H       1  UNL1        0.1825
     20 H          66.0433   96.4786    9.9912 H       1  UNL1        0.2414
     21 C          63.0852   84.2828   14.0741 C.3     1  UNL1        0.1148
     22 C          64.0813   83.2400   13.6614 C.3     1  UNL1        0.0510
     23 C          63.6620   82.1179   12.7585 C.ar    1  UNL1       -0.0202
     24 C          63.0084   80.8966   13.3339 C.ar    1  UNL1       -0.0042
     25 C          62.5891   79.7745   12.4311 C.ar    1  UNL1       -0.0003
     26 C          62.8233   79.8738   10.9528 C.ar    1  UNL1       -0.0000
     27 C          63.4769   81.0952   10.3774 C.ar    1  UNL1       -0.0003
     28 C          63.8962   82.2173   11.2803 C.ar    1  UNL1       -0.0042
@<TRIPOS>BOND
     1     1     2    1
     2     2     3   ar
     3     3     4   ar
     4     4     5   ar
     5     5     6   ar
     6     6    13    1
     7    13    14    2
     8    14    15    1
     9    15    16    2
    10    15    17   am
    11    17    18    1
    12     6     7   ar
    13     7     8   ar
    14     8     9   ar
    15     9    10   ar
    16    10    11    2
    17    10    12   ar
    18    12    21    1
    19    21    22    1
    20    22    23    1
    21    23    24   ar
    22    24    25   ar
    23    25    26   ar
    24    26    27   ar
    25    27    28   ar
    26    12     2   ar
    27    28    23   ar
    28     9     4   ar
    29    17    19    1
    30    18    20    1
@<TRIPOS>MOLECULE
*****
 28 30 0 0 0
SMALL
GASTEIGER

@<TRIPOS>ATOM
      1 C          65.0201   84.0851   13.8142 C.3     1  UNL1        0.0719
      2 C          64.4867   85.2711   14.5619 C.ar    1  UNL1        0.1229
      3 N          64.9613   86.6513   14.2158 N.ar    1  UNL1       -0.2322
      4 C          64.4280   87.8373   14.9634 C.ar    1  UNL1        0.0872
      5 C          64.9025   89.2175   14.6173 C.ar    1  UNL1        0.0193
      6 C          64.3692   90.4034   15.3649 C.ar    1  UNL1        0.0016
      7 C          63.3613   90.2092   16.4587 C.ar    1  UNL1        0.0003
      8 C          62.8867   88.8290   16.8049 C.ar    1  UNL1        0.0063
      9 C          63.4200   87.6431   16.0572 C.ar    1  UNL1        0.0738
     10 C          62.9455   86.2628   16.4034 C.ar    1  UNL1        0.2631
     11 O          61.9376   86.0686   17.4972 O.2     1  UNL1       -0.2669
     12 N          63.4788   85.0769   15.6557 N.ar    1  UNL1       -0.2837
     13 C          64.8438   91.7837   15.0188 C.2     1  UNL1        0.0048
     14 C          65.5954   92.0203   13.7425 C.2     1  UNL1        0.0598
     15 C          66.0700   93.4006   13.3964 C.2     1  UNL1        0.2679
     16 O          66.8923   94.1795   14.3798 O.2     1  UNL1       -0.2681
     17 N          65.7223   94.0018   12.0669 N.am    1  UNL1       -0.1934
     18 O          66.1968   95.3820   11.7209 O.3     1  UNL1       -0.2949
     19 H          65.1826   93.4906   11.4215 H       1  UNL1        0.1825
     20 H          66.7110   95.7420   12.4604 H       1  UNL1        0.2414
     21 C          63.0043   83.6966   16.0018 C.3     1  UNL1        0.1148
     22 C          61.8921   83.0670   15.2165 C.3     1  UNL1        0.0510
     23 C          62.2042   82.2423   14.0031 C.ar    1  UNL1       -0.0202
     24 C          62.5039   82.9146   12.6961 C.ar    1  UNL1       -0.0042
     25 C          62.8160   82.0900   11.4827 C.ar    1  UNL1       -0.0003
     26 C          62.8285   80.5929   11.5762 C.ar    1  UNL1       -0.0000
     27 C          62.5288   79.9206   12.8832 C.ar    1  UNL1       -0.0003
     28 C          62.2166   80.7453   14.0967 C.ar    1  UNL1       -0.0042
@<TRIPOS>BOND
     1     1     2    1
     2     2     3   ar
     3     3     4   ar
     4     4     5   ar
     5     5     6   ar
     6     6    13    1
     7    13    14    2
     8    14    15    1
     9    15    16    2
    10    15    17   am
    11    17    18    1
    12     6     7   ar
    13     7     8   ar
    14     8     9   ar
    15     9    10   ar
    16    10    11    2
    17    10    12   ar
    18    12    21    1
    19    21    22    1
    20    22    23    1
    21    23    24   ar
    22    24    25   ar
    23    25    26   ar
    24    26    27   ar
    25    27    28   ar
    26    12     2   ar
    27    28    23   ar
    28     9     4   ar
    29    17    19    1
    30    18    20    1
@<TRIPOS>MOLECULE
*****
 28 30 0 0 0
SMALL
GASTEIGER

@<TRIPOS>ATOM
      1 C          61.9252   85.2641   11.8526 C.3     1  UNL1        0.0719
      2 C          62.1386   86.7489   11.8597 C.ar    1  UNL1        0.1229
      3 N          63.2376   87.3447   12.6887 N.ar    1  UNL1       -0.2322
      4 C          63.4510   88.8295   12.6958 C.ar    1  UNL1        0.0872
      5 C          64.5500   89.4252   13.5247 C.ar    1  UNL1        0.0193
      6 C          64.7634   90.9099   13.5318 C.ar    1  UNL1        0.0016
      7 C          63.8777   91.7988   12.7100 C.ar    1  UNL1        0.0003
      8 C          62.7787   91.2031   11.8811 C.ar    1  UNL1        0.0063
      9 C          62.5653   89.7184   11.8740 C.ar    1  UNL1        0.0738
     10 C          61.4663   89.1225   11.0450 C.ar    1  UNL1        0.2631
     11 O          60.5806   90.0115   10.2231 O.2     1  UNL1       -0.2669
     12 N          61.2529   87.6378   11.0379 N.ar    1  UNL1       -0.2837
     13 C          65.8624   91.5058   14.3608 C.2     1  UNL1        0.0048
     14 C          66.9274   92.3367   13.7087 C.2     1  UNL1        0.0598
     15 C          68.0265   92.9325   14.5377 C.2     1  UNL1        0.2679
     16 O          69.4574   92.5940   14.2411 O.2     1  UNL1       -0.2681
     17 N          67.6946   93.8669   15.6632 N.am    1  UNL1       -0.1934
     18 O          68.7937   94.4626   16.4921 O.3     1  UNL1       -0.2949
     19 H          66.7555   94.0891   15.8579 H       1  UNL1        0.1825
     20 H          69.6510   94.1430   16.1702 H       1  UNL1        0.2414
     21 C          60.1539   87.0420   10.2089 C.3     1  UNL1        0.1148
     22 C          60.2193   87.1156    8.7121 C.3     1  UNL1        0.0510
     23 C          61.0504   86.1278    7.9483 C.ar    1  UNL1       -0.0202
     24 C          62.4633   85.8517    8.3696 C.ar    1  UNL1       -0.0042
     25 C          63.2943   84.8639    7.6058 C.ar    1  UNL1       -0.0003
     26 C          62.7125   84.1520    6.4205 C.ar    1  UNL1       -0.0000
     27 C          61.2996   84.4281    5.9992 C.ar    1  UNL1       -0.0003
     28 C          60.4685   85.4160    6.7631 C.ar    1  UNL1       -0.0042
@<TRIPOS>BOND
     1     1     2    1
     2     2     3   ar
     3     3     4   ar
     4     4     5   ar
     5     5     6   ar
     6     6    13    1
     7    13    14    2
     8    14    15    1
     9    15    16    2
    10    15    17   am
    11    17    18    1
    12     6     7   ar
    13     7     8   ar
    14     8     9   ar
    15     9    10   ar
    16    10    11    2
    17    10    12   ar
    18    12    21    1
    19    21    22    1
    20    22    23    1
    21    23    24   ar
    22    24    25   ar
    23    25    26   ar
    24    26    27   ar
    25    27    28   ar
    26    12     2   ar
    27    28    23   ar
    28     9     4   ar
    29    17    19    1
    30    18    20    1
