@<TRIPOS>MOLECULE
*****
 30 33 0 0 0
SMALL
GASTEIGER

@<TRIPOS>ATOM
      1 C          63.6108   90.0303   13.3521 C.2     1  UNL1        0.2490
      2 O          63.0082   90.7221   12.1654 O.2     1  UNL1       -0.2699
      3 N          63.6877   88.5326   13.3880 N.am    1  UNL1       -0.2715
      4 C          64.2903   87.8408   14.5748 C.3     1  UNL1        0.1426
      5 C          64.3672   86.3433   14.6107 C.ar    1  UNL1        0.1159
      6 N          64.9027   85.3901   15.6377 N.ar    1  UNL1       -0.1314
      7 N          64.7080   83.9952   15.1215 N.ar    1  UNL1       -0.0576
      8 N          64.0522   84.0863   13.7756 N.ar    1  UNL1       -0.1813
      9 C          63.8415   85.5375   13.4599 C.ar    1  UNL1        0.0837
     10 C          63.2389   86.2293   12.2731 C.3     1  UNL1        0.0671
     11 C          63.1620   87.7269   12.2373 C.3     1  UNL1        0.0820
     12 C          62.5594   88.4186   11.0505 C.3     1  UNL1        0.0219
     13 C          66.2031   91.5161   13.0829 C.3     1  UNL1        0.0327
     14 C          65.4326   91.5789   14.3683 C.ar    1  UNL1        0.0042
     15 C          64.1364   90.8361   14.5029 C.ar    1  UNL1        0.0526
     16 C          63.3660   90.8990   15.7884 C.ar    1  UNL1        0.0249
     17 C          63.8916   91.7048   16.9392 C.ar    1  UNL1        0.0989
     18 N          65.1878   92.4476   16.8046 N.ar    1  UNL1       -0.2402
     19 C          65.9583   92.3847   15.5191 C.ar    1  UNL1        0.1488
     20 C          67.2544   93.1276   15.3845 C.3     1  UNL1        0.4345
     21 F          68.5506   93.8704   15.2499 F       1  UNL1       -0.1644
     22 F          67.9321   92.1007   16.2426 F       1  UNL1       -0.1644
     23 F          66.5768   94.1545   14.5265 F       1  UNL1       -0.1644
     24 C          63.6735   82.9293   12.8993 C.ar    1  UNL1        0.2543
     25 N          63.9739   82.9713   11.4303 N.ar    1  UNL1       -0.2060
     26 C          63.5952   81.8143   10.5539 C.ar    1  UNL1        0.1332
     27 C          62.9161   80.6154   11.1465 C.ar    1  UNL1        0.1784
     28 F          62.5374   79.4584   10.2702 F       1  UNL1       -0.2009
     29 C          62.6156   80.5734   12.6156 C.ar    1  UNL1        0.1332
     30 N          62.9943   81.7303   13.4919 N.ar    1  UNL1       -0.2060
@<TRIPOS>BOND
     1    13    14    1
     2    14    15   ar
     3    15     1    1
     4     1     2    2
     5     1     3   am
     6     3     4    1
     7     4     5    1
     8     5     6   ar
     9     6     7   ar
    10     7     8   ar
    11     8    24    1
    12    24    25   ar
    13    25    26   ar
    14    26    27   ar
    15    27    28    1
    16    27    29   ar
    17    29    30   ar
    18     8     9   ar
    19     9    10    1
    20    10    11    1
    21    11    12    1
    22    15    16   ar
    23    16    17   ar
    24    17    18   ar
    25    18    19   ar
    26    19    20    1
    27    20    21    1
    28    20    22    1
    29    20    23    1
    30    19    14   ar
    31    11     3    1
    32     9     5   ar
    33    30    24   ar
@<TRIPOS>MOLECULE
*****
 30 33 0 0 0
SMALL
GASTEIGER

@<TRIPOS>ATOM
      1 C          61.9590   86.5126   11.1823 C.2     1  UNL1        0.2490
      2 O          61.9975   85.3479   12.1266 O.2     1  UNL1       -0.2699
      3 N          62.6736   87.7847   11.5307 N.am    1  UNL1       -0.2715
      4 C          62.6351   88.9495   10.5862 C.3     1  UNL1        0.1426
      5 C          63.3496   90.2214   10.9347 C.ar    1  UNL1        0.1159
      6 N          63.4881   91.5263   10.2079 N.ar    1  UNL1       -0.1314
      7 N          64.3268   92.4400   11.0516 N.ar    1  UNL1       -0.0576
      8 N          64.7067   91.6998   12.2997 N.ar    1  UNL1       -0.1813
      9 C          64.1028   90.3287   12.2275 C.ar    1  UNL1        0.0837
     10 C          64.1413   89.1639   13.1719 C.3     1  UNL1        0.0671
     11 C          63.4267   87.8919   12.8234 C.3     1  UNL1        0.0820
     12 C          63.4653   86.7271   13.7679 C.3     1  UNL1        0.0219
     13 C          63.0792   84.8860    8.9241 C.3     1  UNL1        0.0327
     14 C          61.7660   85.5921    8.7604 C.ar    1  UNL1        0.0042
     15 C          61.2059   86.4054    9.8895 C.ar    1  UNL1        0.0526
     16 C          59.8927   87.1115    9.7257 C.ar    1  UNL1        0.0249
     17 C          59.1395   87.0043    8.4329 C.ar    1  UNL1        0.0989
     18 N          59.6997   86.1910    7.3039 N.ar    1  UNL1       -0.2402
     19 C          61.0129   85.4849    7.4676 C.ar    1  UNL1        0.1488
     20 C          61.5730   84.6716    6.3385 C.3     1  UNL1        0.4345
     21 F          62.1331   83.8583    5.2095 F       1  UNL1       -0.1644
     22 F          62.9236   85.2821    6.5688 F       1  UNL1       -0.1644
     23 F          60.2224   84.0610    6.1083 F       1  UNL1       -0.1644
     24 C          65.5436   92.2366   13.4229 C.ar    1  UNL1        0.2543
     25 N          65.0855   92.0766   14.8423 N.ar    1  UNL1       -0.2060
     26 C          65.9224   92.6133   15.9655 C.ar    1  UNL1        0.1332
     27 C          67.2172   93.3101   15.6694 C.ar    1  UNL1        0.1784
     28 F          68.0541   93.8468   16.7925 F       1  UNL1       -0.2009
     29 C          67.6753   93.4700   14.2499 C.ar    1  UNL1        0.1332
     30 N          66.8385   92.9333   13.1267 N.ar    1  UNL1       -0.2060
@<TRIPOS>BOND
     1    13    14    1
     2    14    15   ar
     3    15     1    1
     4     1     2    2
     5     1     3   am
     6     3     4    1
     7     4     5    1
     8     5     6   ar
     9     6     7   ar
    10     7     8   ar
    11     8    24    1
    12    24    25   ar
    13    25    26   ar
    14    26    27   ar
    15    27    28    1
    16    27    29   ar
    17    29    30   ar
    18     8     9   ar
    19     9    10    1
    20    10    11    1
    21    11    12    1
    22    15    16   ar
    23    16    17   ar
    24    17    18   ar
    25    18    19   ar
    26    19    20    1
    27    20    21    1
    28    20    22    1
    29    20    23    1
    30    19    14   ar
    31    11     3    1
    32     9     5   ar
    33    30    24   ar
@<TRIPOS>MOLECULE
*****
 30 33 0 0 0
SMALL
GASTEIGER

@<TRIPOS>ATOM
      1 C          63.3332   89.9442   12.1070 C.2     1  UNL1        0.2490
      2 O          62.4005   90.2965   10.9864 O.2     1  UNL1       -0.2699
      3 N          63.4230   88.5271   12.5907 N.am    1  UNL1       -0.2715
      4 C          64.3559   88.1748   13.7114 C.3     1  UNL1        0.1426
      5 C          64.4456   86.7578   14.1951 C.ar    1  UNL1        0.1159
      6 N          65.2676   86.1153   15.2728 N.ar    1  UNL1       -0.1314
      7 N          64.9327   84.6535   15.3019 N.ar    1  UNL1       -0.0576
      8 N          63.9037   84.3925   14.2422 N.ar    1  UNL1       -0.1813
      9 C          63.6027   85.6930   13.5581 C.ar    1  UNL1        0.0837
     10 C          62.6699   86.0454   12.4375 C.3     1  UNL1        0.0671
     11 C          62.5801   87.4624   11.9538 C.3     1  UNL1        0.0820
     12 C          61.6473   87.8146   10.8331 C.3     1  UNL1        0.0219
     13 C          64.7805   91.9367   10.3937 C.3     1  UNL1        0.0327
     14 C          64.8998   92.0051   11.8873 C.ar    1  UNL1        0.0042
     15 C          64.1762   91.0089   12.7440 C.ar    1  UNL1        0.0526
     16 C          64.2956   91.0774   14.2377 C.ar    1  UNL1        0.0249
     17 C          65.1386   92.1422   14.8746 C.ar    1  UNL1        0.0989
     18 N          65.8622   93.1384   14.0179 N.ar    1  UNL1       -0.2402
     19 C          65.7428   93.0699   12.5243 C.ar    1  UNL1        0.1488
     20 C          66.4664   94.0661   11.6676 C.3     1  UNL1        0.4345
     21 F          67.1901   95.0623   10.8109 F       1  UNL1       -0.1644
     22 F          65.7157   95.1822   12.3314 F       1  UNL1       -0.1644
     23 F          67.2172   92.9499   11.0038 F       1  UNL1       -0.1644
     24 C          63.2844   83.0642   13.9226 C.ar    1  UNL1        0.2543
     25 N          62.0485   82.6193   14.6469 N.ar    1  UNL1       -0.2060
     26 C          61.4292   81.2909   14.3274 C.ar    1  UNL1        0.1332
     27 C          62.0458   80.4076   13.2837 C.ar    1  UNL1        0.1784
     28 F          61.4265   79.0793   12.9642 F       1  UNL1       -0.2009
     29 C          63.2817   80.8526   12.5594 C.ar    1  UNL1        0.1332
     30 N          63.9010   82.1808   12.8789 N.ar    1  UNL1       -0.2060
@<TRIPOS>BOND
     1    13    14    1
     2    14    15   ar
     3    15     1    1
     4     1     2    2
     5     1     3   am
     6     3     4    1
     7     4     5    1
     8     5     6   ar
     9     6     7   ar
    10     7     8   ar
    11     8    24    1
    12    24    25   ar
    13    25    26   ar
    14    26    27   ar
    15    27    28    1
    16    27    29   ar
    17    29    30   ar
    18     8     9   ar
    19     9    10    1
    20    10    11    1
    21    11    12    1
    22    15    16   ar
    23    16    17   ar
    24    17    18   ar
    25    18    19   ar
    26    19    20    1
    27    20    21    1
    28    20    22    1
    29    20    23    1
    30    19    14   ar
    31    11     3    1
    32     9     5   ar
    33    30    24   ar
