@<TRIPOS>MOLECULE
*****
 24 27 0 0 0
SMALL
GASTEIGER

@<TRIPOS>ATOM
      1 O          62.4525   85.3043    7.7046 O.2     1  UNL1       -0.2422
      2 C          62.4317   85.7564    9.1347 C.2     1  UNL1        0.3644
      3 C          62.7182   84.7779   10.2349 C.3     1  UNL1        0.2333
      4 C          62.6974   85.2300   11.6650 C.2     1  UNL1        0.3159
      5 N          62.3901   86.6607   11.9949 N.2     1  UNL1       -0.0037
      6 C          62.1036   87.6392   10.8947 C.2     1  UNL1        0.3614
      7 N          62.1244   87.1871    9.4646 N.am    1  UNL1        0.0290
      8 N          62.9838   84.2515   12.7652 N.pl3   1  UNL1       -0.1888
      9 C          62.6898   82.7939   12.5679 C.3     1  UNL1        0.2343
     10 C          62.9762   81.8153   13.6680 C.3     1  UNL1        0.1929
     11 O          63.5567   82.2944   14.9655 O.3     1  UNL1       -0.3449
     12 C          63.8508   83.7519   15.1628 C.3     1  UNL1        0.1929
     13 C          63.5643   84.7305   14.0627 C.3     1  UNL1        0.2343
     14 C          61.7964   89.0699   11.2246 C.3     1  UNL1        0.2447
     15 C          62.8285   89.9217   11.9021 C.2     1  UNL1        0.3637
     16 N          63.2818   89.7925   13.3261 N.2     1  UNL1       -0.0344
     17 C          64.3221   90.8432   13.5786 C.2     1  UNL1        0.2322
     18 C          65.1211   91.1916   14.7994 C.2     1  UNL1        0.0565
     19 C          66.1098   92.3186   14.7521 C.2     1  UNL1        0.0346
     20 BR         66.9089   92.6670   15.9728 Br      1  UNL1       -0.0492
     21 C          66.2995   93.0972   13.4841 C.2     1  UNL1       -0.0105
     22 C          65.5005   92.7488   12.2634 C.3     1  UNL1        0.1042
     23 C          64.5118   91.6218   12.3107 C.2     1  UNL1        0.2175
     24 N          63.5887   91.0523   11.2745 N.2     1  UNL1       -0.0383
@<TRIPOS>BOND
     1     1     2    2
     2     2     3    1
     3     3     4    1
     4     4     8    1
     5     8     9    1
     6     9    10    1
     7    10    11    1
     8    11    12    1
     9    12    13    1
    10     4     5    2
    11     5     6    1
    12     6    14    1
    13    14    15    1
    14    15    16    2
    15    16    17    1
    16    17    18    2
    17    18    19    1
    18    19    20    1
    19    19    21    2
    20    21    22    1
    21    22    23    1
    22    23    24    2
    23     6     7    2
    24     7     2    1
    25    13     8    1
    26    24    15    1
    27    23    17    1
@<TRIPOS>MOLECULE
*****
 24 27 0 0 0
SMALL
GASTEIGER

@<TRIPOS>ATOM
      1 O          67.0385   93.4378   16.4271 O.2     1  UNL1       -0.2422
      2 C          66.4538   92.8277   15.1877 C.2     1  UNL1        0.3644
      3 C          66.9014   93.3001   13.8363 C.3     1  UNL1        0.2333
      4 C          66.3167   92.6900   12.5970 C.2     1  UNL1        0.3159
      5 N          65.2845   91.6075   12.7091 N.2     1  UNL1       -0.0037
      6 C          64.8368   91.1351   14.0606 C.2     1  UNL1        0.3614
      7 N          65.4215   91.7452   15.2999 N.am    1  UNL1        0.0290
      8 N          66.7644   93.1625   11.2454 N.pl3   1  UNL1       -0.1888
      9 C          66.2891   94.4836   10.7174 C.3     1  UNL1        0.2343
     10 C          66.7367   94.9560    9.3660 C.3     1  UNL1        0.1929
     11 O          67.6596   94.1074    8.5426 O.3     1  UNL1       -0.3449
     12 C          68.1348   92.7863    9.0706 C.3     1  UNL1        0.1929
     13 C          67.6872   92.3138   10.4220 C.3     1  UNL1        0.2343
     14 C          63.8045   90.0526   14.1727 C.3     1  UNL1        0.2447
     15 C          63.0764   89.5810   12.9491 C.2     1  UNL1        0.3637
     16 N          63.1203   88.1954   12.3761 N.2     1  UNL1       -0.0344
     17 C          62.2475   88.1702   11.1565 C.2     1  UNL1        0.2322
     18 C          61.9086   87.0768   10.1872 C.2     1  UNL1        0.0565
     19 C          60.9863   87.3534    9.0371 C.2     1  UNL1        0.0346
     20 BR         60.6474   86.2599    8.0678 Br      1  UNL1       -0.0492
     21 C          60.4029   88.7234    8.8562 C.2     1  UNL1       -0.0105
     22 C          60.7418   89.8168    9.8255 C.3     1  UNL1        0.1042
     23 C          61.6641   89.5402   10.9756 C.2     1  UNL1        0.2175
     24 N          62.1764   90.4121   12.0835 N.2     1  UNL1       -0.0383
@<TRIPOS>BOND
     1     1     2    2
     2     2     3    1
     3     3     4    1
     4     4     8    1
     5     8     9    1
     6     9    10    1
     7    10    11    1
     8    11    12    1
     9    12    13    1
    10     4     5    2
    11     5     6    1
    12     6    14    1
    13    14    15    1
    14    15    16    2
    15    16    17    1
    16    17    18    2
    17    18    19    1
    18    19    20    1
    19    19    21    2
    20    21    22    1
    21    22    23    1
    22    23    24    2
    23     6     7    2
    24     7     2    1
    25    13     8    1
    26    24    15    1
    27    23    17    1
@<TRIPOS>MOLECULE
*****
 24 27 0 0 0
SMALL
GASTEIGER

@<TRIPOS>ATOM
      1 O          59.1443   87.0379    7.7756 O.2     1  UNL1       -0.2422
      2 C          60.0489   87.1263    8.9688 C.2     1  UNL1        0.3644
      3 C          60.9223   85.9634    9.3356 C.3     1  UNL1        0.2333
      4 C          61.8269   86.0518   10.5289 C.2     1  UNL1        0.3159
      5 N          61.8581   87.3031   11.3554 N.2     1  UNL1       -0.0037
      6 C          60.9846   88.4662   10.9886 C.2     1  UNL1        0.3614
      7 N          60.0800   88.3778    9.7953 N.am    1  UNL1        0.0290
      8 N          62.7004   84.8887   10.8957 N.pl3   1  UNL1       -0.1888
      9 C          62.9077   84.5319   12.3378 C.3     1  UNL1        0.2343
     10 C          63.7811   83.3690   12.7046 C.3     1  UNL1        0.1929
     11 O          64.4472   82.5628   11.6293 O.3     1  UNL1       -0.3449
     12 C          64.2399   82.9196   10.1872 C.3     1  UNL1        0.1929
     13 C          63.3665   84.0825    9.8204 C.3     1  UNL1        0.2343
     14 C          61.0157   89.7175   11.8151 C.3     1  UNL1        0.2447
     15 C          62.3293   90.2957   12.2514 C.2     1  UNL1        0.3637
     16 N          63.0137   90.0397   13.5613 N.2     1  UNL1       -0.0344
     17 C          64.2964   90.8172   13.5738 C.2     1  UNL1        0.2322
     18 C          65.3798   90.9497   14.6028 C.2     1  UNL1        0.0565
     19 C          66.5715   91.8186   14.3295 C.2     1  UNL1        0.0346
     20 BR         67.6549   91.9512   15.3584 Br      1  UNL1       -0.0492
     21 C          66.6798   92.5551   13.0272 C.2     1  UNL1       -0.0105
     22 C          65.5965   92.4227   11.9983 C.3     1  UNL1        0.1042
     23 C          64.4048   91.5537   12.2716 C.2     1  UNL1        0.2175
     24 N          63.1890   91.2314   11.4543 N.2     1  UNL1       -0.0383
@<TRIPOS>BOND
     1     1     2    2
     2     2     3    1
     3     3     4    1
     4     4     8    1
     5     8     9    1
     6     9    10    1
     7    10    11    1
     8    11    12    1
     9    12    13    1
    10     4     5    2
    11     5     6    1
    12     6    14    1
    13    14    15    1
    14    15    16    2
    15    16    17    1
    16    17    18    2
    17    18    19    1
    18    19    20    1
    19    19    21    2
    20    21    22    1
    21    22    23    1
    22    23    24    2
    23     6     7    2
    24     7     2    1
    25    13     8    1
    26    24    15    1
    27    23    17    1
@<TRIPOS>MOLECULE
*****
 24 27 0 0 0
SMALL
GASTEIGER

@<TRIPOS>ATOM
      1 O          61.6215   85.6184    7.8678 O.2     1  UNL1       -0.2422
      2 C          61.9116   86.1134    9.2537 C.2     1  UNL1        0.3644
      3 C          62.3394   85.1493   10.3202 C.3     1  UNL1        0.2333
      4 C          62.6295   85.6442   11.7061 C.2     1  UNL1        0.3159
      5 N          62.4917   87.1033   12.0256 N.2     1  UNL1       -0.0037
      6 C          62.0638   88.0675   10.9591 C.2     1  UNL1        0.3614
      7 N          61.7738   87.5725    9.5732 N.am    1  UNL1        0.0290
      8 N          63.0573   84.6800   12.7726 N.pl3   1  UNL1       -0.1888
      9 C          63.7978   85.1763   13.9791 C.3     1  UNL1        0.2343
     10 C          64.2256   84.2122   15.0456 C.3     1  UNL1        0.1929
     11 O          63.9131   82.7518   14.9056 O.3     1  UNL1       -0.3449
     12 C          63.1726   82.2556   13.6991 C.3     1  UNL1        0.1929
     13 C          62.7448   83.2197   12.6327 C.3     1  UNL1        0.2343
     14 C          61.9260   89.5265   11.2786 C.3     1  UNL1        0.2447
     15 C          62.8243   90.1587   12.3001 C.2     1  UNL1        0.3637
     16 N          64.0773   90.9322   12.0143 N.2     1  UNL1       -0.0344
     17 C          64.6547   91.3800   13.3243 C.2     1  UNL1        0.2322
     18 C          65.8806   92.1758   13.6612 C.2     1  UNL1        0.0565
     19 C          66.2104   92.4749   15.0936 C.2     1  UNL1        0.0346
     20 BR         67.4365   93.2708   15.4305 Br      1  UNL1       -0.0492
     21 C          65.3143   91.9782   16.1891 C.2     1  UNL1       -0.0105
     22 C          64.0883   91.1823   15.8522 C.3     1  UNL1        0.1042
     23 C          63.7585   90.8832   14.4198 C.2     1  UNL1        0.2175
     24 N          62.6273   90.1285   13.7868 N.2     1  UNL1       -0.0383
@<TRIPOS>BOND
     1     1     2    2
     2     2     3    1
     3     3     4    1
     4     4     8    1
     5     8     9    1
     6     9    10    1
     7    10    11    1
     8    11    12    1
     9    12    13    1
    10     4     5    2
    11     5     6    1
    12     6    14    1
    13    14    15    1
    14    15    16    2
    15    16    17    1
    16    17    18    2
    17    18    19    1
    18    19    20    1
    19    19    21    2
    20    21    22    1
    21    22    23    1
    22    23    24    2
    23     6     7    2
    24     7     2    1
    25    13     8    1
    26    24    15    1
    27    23    17    1
@<TRIPOS>MOLECULE
*****
 24 27 0 0 0
SMALL
GASTEIGER

@<TRIPOS>ATOM
      1 O          62.8180   85.1720    7.5662 O.2     1  UNL1       -0.2422
      2 C          62.6361   85.5462    9.0073 C.2     1  UNL1        0.3644
      3 C          62.8921   84.5330   10.0834 C.3     1  UNL1        0.2333
      4 C          62.7102   84.9072   11.5245 C.2     1  UNL1        0.3159
      5 N          62.2723   86.2946   11.8896 N.2     1  UNL1       -0.0037
      6 C          62.0162   87.3078   10.8136 C.2     1  UNL1        0.3614
      7 N          62.1981   86.9337    9.3725 N.am    1  UNL1        0.0290
      8 N          62.9662   83.8939   12.6005 N.pl3   1  UNL1       -0.1888
      9 C          62.6755   84.2313   14.0329 C.3     1  UNL1        0.2343
     10 C          62.9315   83.2181   15.1089 C.3     1  UNL1        0.1929
     11 O          63.4783   81.8675   14.7526 O.3     1  UNL1       -0.3449
     12 C          63.7690   81.5302   13.3202 C.3     1  UNL1        0.1929
     13 C          63.5130   82.5434   12.2442 C.3     1  UNL1        0.2343
     14 C          61.5783   88.6952   11.1787 C.3     1  UNL1        0.2447
     15 C          62.6007   89.7694   11.4043 C.2     1  UNL1        0.3637
     16 N          63.0444   90.7895   10.3981 N.2     1  UNL1       -0.0344
     17 C          64.0768   91.6627   11.0476 C.2     1  UNL1        0.2322
     18 C          64.8650   92.8332   10.5391 C.2     1  UNL1        0.0565
     19 C          65.8475   93.5233   11.4383 C.2     1  UNL1        0.0346
     20 BR         66.6357   94.6939   10.9298 Br      1  UNL1       -0.0492
     21 C          66.0417   93.0428   12.8459 C.2     1  UNL1       -0.0105
     22 C          65.2535   91.8723   13.3544 C.3     1  UNL1        0.1042
     23 C          64.2710   91.1823   12.4552 C.2     1  UNL1        0.2175
     24 N          63.3587   90.0122   12.6757 N.2     1  UNL1       -0.0383
@<TRIPOS>BOND
     1     1     2    2
     2     2     3    1
     3     3     4    1
     4     4     8    1
     5     8     9    1
     6     9    10    1
     7    10    11    1
     8    11    12    1
     9    12    13    1
    10     4     5    2
    11     5     6    1
    12     6    14    1
    13    14    15    1
    14    15    16    2
    15    16    17    1
    16    17    18    2
    17    18    19    1
    18    19    20    1
    19    19    21    2
    20    21    22    1
    21    22    23    1
    22    23    24    2
    23     6     7    2
    24     7     2    1
    25    13     8    1
    26    24    15    1
    27    23    17    1
@<TRIPOS>MOLECULE
*****
 24 27 0 0 0
SMALL
GASTEIGER

@<TRIPOS>ATOM
      1 O          64.8376   91.9705   14.1033 O.2     1  UNL1       -0.2422
      2 C          64.3555   90.6005   13.7284 C.2     1  UNL1        0.3644
      3 C          63.4583   90.4202   12.5399 C.3     1  UNL1        0.2333
      4 C          62.9762   89.0501   12.1651 C.2     1  UNL1        0.3159
      5 N          63.3912   87.8604   12.9788 N.2     1  UNL1       -0.0037
      6 C          64.2884   88.0406   14.1674 C.2     1  UNL1        0.3614
      7 N          64.7705   89.4107   14.5422 N.am    1  UNL1        0.0290
      8 N          62.0791   88.8699   10.9765 N.pl3   1  UNL1       -0.1888
      9 C          61.9987   87.5372   10.2927 C.3     1  UNL1        0.2343
     10 C          61.1016   87.3570    9.1042 C.3     1  UNL1        0.1929
     11 O          60.2849   88.5094    8.5994 O.3     1  UNL1       -0.3449
     12 C          60.3652   89.8420    9.2831 C.3     1  UNL1        0.1929
     13 C          61.2623   90.0223   10.4717 C.3     1  UNL1        0.2343
     14 C          64.7034   86.8508   14.9810 C.3     1  UNL1        0.2447
     15 C          64.1807   85.4876   14.6369 C.2     1  UNL1        0.3637
     16 N          62.8780   84.9014   15.0946 N.2     1  UNL1       -0.0344
     17 C          62.7611   83.5228   14.5153 C.2     1  UNL1        0.2322
     18 C          61.6932   82.4752   14.6251 C.2     1  UNL1        0.0565
     19 C          61.8557   81.1617   13.9193 C.2     1  UNL1        0.0346
     20 BR         60.7878   80.1140   14.0291 Br      1  UNL1       -0.0492
     21 C          63.0861   80.8958   13.1036 C.2     1  UNL1       -0.0105
     22 C          64.1540   81.9434   12.9937 C.3     1  UNL1        0.1042
     23 C          63.9915   83.2569   13.6995 C.2     1  UNL1        0.2175
     24 N          64.8688   84.4712   13.7748 N.2     1  UNL1       -0.0383
@<TRIPOS>BOND
     1     1     2    2
     2     2     3    1
     3     3     4    1
     4     4     8    1
     5     8     9    1
     6     9    10    1
     7    10    11    1
     8    11    12    1
     9    12    13    1
    10     4     5    2
    11     5     6    1
    12     6    14    1
    13    14    15    1
    14    15    16    2
    15    16    17    1
    16    17    18    2
    17    18    19    1
    18    19    20    1
    19    19    21    2
    20    21    22    1
    21    22    23    1
    22    23    24    2
    23     6     7    2
    24     7     2    1
    25    13     8    1
    26    24    15    1
    27    23    17    1
@<TRIPOS>MOLECULE
*****
 24 27 0 0 0
SMALL
GASTEIGER

@<TRIPOS>ATOM
      1 O          66.5411   92.1670   16.0595 O.2     1  UNL1       -0.2422
      2 C          65.9618   92.1071   14.6772 C.2     1  UNL1        0.3644
      3 C          66.5004   93.0001   13.5990 C.3     1  UNL1        0.2333
      4 C          65.9211   92.9402   12.2167 C.2     1  UNL1        0.3159
      5 N          64.8032   91.9874   11.9126 N.2     1  UNL1       -0.0037
      6 C          64.2646   91.0944   12.9908 C.2     1  UNL1        0.3614
      7 N          64.8439   91.1543   14.3731 N.am    1  UNL1        0.0290
      8 N          66.4597   93.8332   11.1384 N.pl3   1  UNL1       -0.1888
      9 C          66.2459   95.3159   11.2162 C.3     1  UNL1        0.2343
     10 C          66.7845   96.2088   10.1381 C.3     1  UNL1        0.1929
     11 O          67.5368   95.6192    8.9821 O.3     1  UNL1       -0.3449
     12 C          67.7506   94.1365    8.9043 C.3     1  UNL1        0.1929
     13 C          67.2120   93.2435    9.9825 C.3     1  UNL1        0.2343
     14 C          63.1468   90.1416   12.6867 C.3     1  UNL1        0.2447
     15 C          63.3323   88.6706   12.9141 C.2     1  UNL1        0.3637
     16 N          62.8281   87.5708   12.0274 N.2     1  UNL1       -0.0344
     17 C          63.2388   86.2616   12.6335 C.2     1  UNL1        0.2322
     18 C          63.0204   84.8424   12.1998 C.2     1  UNL1        0.0565
     19 C          63.5601   83.7138   13.0274 C.2     1  UNL1        0.0346
     20 BR         63.3418   82.2945   12.5937 Br      1  UNL1       -0.0492
     21 C          64.3182   84.0045   14.2887 C.2     1  UNL1       -0.0105
     22 C          64.5365   85.4237   14.7224 C.3     1  UNL1        0.1042
     23 C          63.9968   86.5522   13.8948 C.2     1  UNL1        0.2175
     24 N          64.0546   88.0411   14.0682 N.2     1  UNL1       -0.0383
@<TRIPOS>BOND
     1     1     2    2
     2     2     3    1
     3     3     4    1
     4     4     8    1
     5     8     9    1
     6     9    10    1
     7    10    11    1
     8    11    12    1
     9    12    13    1
    10     4     5    2
    11     5     6    1
    12     6    14    1
    13    14    15    1
    14    15    16    2
    15    16    17    1
    16    17    18    2
    17    18    19    1
    18    19    20    1
    19    19    21    2
    20    21    22    1
    21    22    23    1
    22    23    24    2
    23     6     7    2
    24     7     2    1
    25    13     8    1
    26    24    15    1
    27    23    17    1
@<TRIPOS>MOLECULE
*****
 24 27 0 0 0
SMALL
GASTEIGER

@<TRIPOS>ATOM
      1 O          64.7501   91.6640   15.5795 O.2     1  UNL1       -0.2422
      2 C          64.6250   91.6144   14.0855 C.2     1  UNL1        0.3644
      3 C          65.4899   92.4926   13.2308 C.3     1  UNL1        0.2333
      4 C          65.3648   92.4430   11.7369 C.2     1  UNL1        0.3159
      5 N          64.3747   91.5151   11.0976 N.2     1  UNL1       -0.0037
      6 C          63.5097   90.6368   11.9523 C.2     1  UNL1        0.3614
      7 N          63.6348   90.6864   13.4462 N.am    1  UNL1        0.0290
      8 N          66.2298   93.3213   10.8822 N.pl3   1  UNL1       -0.1888
      9 C          67.2831   92.7116   10.0055 C.3     1  UNL1        0.2343
     10 C          68.1481   93.5899    9.1508 C.3     1  UNL1        0.1929
     11 O          67.9597   95.0778    9.1729 O.3     1  UNL1       -0.3449
     12 C          66.9064   95.6875   10.0497 C.3     1  UNL1        0.1929
     13 C          66.0414   94.8093   10.9043 C.3     1  UNL1        0.2343
     14 C          62.5196   89.7089   11.3130 C.3     1  UNL1        0.2447
     15 C          62.6372   88.2280   11.5205 C.2     1  UNL1        0.3637
     16 N          63.2429   87.5502   12.7137 N.2     1  UNL1       -0.0344
     17 C          63.1499   86.0682   12.5019 C.2     1  UNL1        0.2322
     18 C          63.5833   84.9048   13.3437 C.2     1  UNL1        0.0565
     19 C          63.3536   83.5032   12.8613 C.2     1  UNL1        0.0346
     20 BR         63.7871   82.3398   13.7031 Br      1  UNL1       -0.0492
     21 C          62.6904   83.2650   11.5372 C.2     1  UNL1       -0.0105
     22 C          62.2569   84.4284   10.6954 C.3     1  UNL1        0.1042
     23 C          62.4866   85.8300   11.1778 C.2     1  UNL1        0.2175
     24 N          62.1698   87.1648   10.5712 N.2     1  UNL1       -0.0383
@<TRIPOS>BOND
     1     1     2    2
     2     2     3    1
     3     3     4    1
     4     4     8    1
     5     8     9    1
     6     9    10    1
     7    10    11    1
     8    11    12    1
     9    12    13    1
    10     4     5    2
    11     5     6    1
    12     6    14    1
    13    14    15    1
    14    15    16    2
    15    16    17    1
    16    17    18    2
    17    18    19    1
    18    19    20    1
    19    19    21    2
    20    21    22    1
    21    22    23    1
    22    23    24    2
    23     6     7    2
    24     7     2    1
    25    13     8    1
    26    24    15    1
    27    23    17    1
@<TRIPOS>MOLECULE
*****
 24 27 0 0 0
SMALL
GASTEIGER

@<TRIPOS>ATOM
      1 O          59.1610   89.1614   12.8229 O.2     1  UNL1       -0.2422
      2 C          60.2433   89.1282   11.7848 C.2     1  UNL1        0.3644
      3 C          60.3258   87.9793   10.8239 C.3     1  UNL1        0.2333
      4 C          61.4081   87.9461    9.7858 C.2     1  UNL1        0.3159
      5 N          62.4078   89.0616    9.7087 N.2     1  UNL1       -0.0037
      6 C          62.3254   90.2105   10.6696 C.2     1  UNL1        0.3614
      7 N          61.2431   90.2438   11.7077 N.am    1  UNL1        0.0290
      8 N          61.4906   86.7972    8.8249 N.pl3   1  UNL1       -0.1888
      9 C          62.7538   85.9949    8.7218 C.3     1  UNL1        0.2343
     10 C          62.8363   84.8461    7.7609 C.3     1  UNL1        0.1929
     11 O          61.6556   84.4995    6.9032 O.3     1  UNL1       -0.3449
     12 C          60.3924   85.3017    7.0063 C.3     1  UNL1        0.1929
     13 C          60.3099   86.4506    7.9672 C.3     1  UNL1        0.2343
     14 C          63.3251   91.3261   10.5924 C.3     1  UNL1        0.2447
     15 C          64.1777   91.6528   11.7825 C.2     1  UNL1        0.3637
     16 N          65.4975   92.3650   11.7528 N.2     1  UNL1       -0.0344
     17 C          65.9957   92.4771   13.1632 C.2     1  UNL1        0.2322
     18 C          67.2400   93.0815   13.7431 C.2     1  UNL1        0.0565
     19 C          67.4724   93.0429   15.2245 C.2     1  UNL1        0.0346
     20 BR         68.7167   93.6474   15.8044 Br      1  UNL1       -0.0492
     21 C          66.4605   92.3999   16.1259 C.2     1  UNL1       -0.0105
     22 C          65.2162   91.7955   15.5460 C.3     1  UNL1        0.1042
     23 C          64.9838   91.8340   14.0646 C.2     1  UNL1        0.2175
     24 N          63.8603   91.3246   13.2113 N.2     1  UNL1       -0.0383
@<TRIPOS>BOND
     1     1     2    2
     2     2     3    1
     3     3     4    1
     4     4     8    1
     5     8     9    1
     6     9    10    1
     7    10    11    1
     8    11    12    1
     9    12    13    1
    10     4     5    2
    11     5     6    1
    12     6    14    1
    13    14    15    1
    14    15    16    2
    15    16    17    1
    16    17    18    2
    17    18    19    1
    18    19    20    1
    19    19    21    2
    20    21    22    1
    21    22    23    1
    22    23    24    2
    23     6     7    2
    24     7     2    1
    25    13     8    1
    26    24    15    1
    27    23    17    1
