@<TRIPOS>MOLECULE
*****
 39 43 0 0 0
SMALL
GASTEIGER

@<TRIPOS>ATOM
      1 C          59.5914   90.5124    5.9920 C.ar    1  UNL1        0.0006
      2 C          58.1766   90.8775    5.6533 C.ar    1  UNL1        0.0016
      3 C          57.8881   91.7228    4.4482 C.ar    1  UNL1        0.0196
      4 C          59.0146   92.2029    3.5818 C.ar    1  UNL1        0.0875
      5 N          59.0374   93.0435    2.3396 N.ar    1  UNL1       -0.2412
      6 C          60.4664   93.1979    1.9107 C.ar    1  UNL1        0.1110
      7 S          61.3268   92.4527    2.8878 S.2     1  UNL1       -0.0693
      8 C          60.4294   91.8378    3.9205 C.ar    1  UNL1        0.0482
      9 C          60.7179   90.9925    5.1256 C.ar    1  UNL1        0.0080
     10 C          60.4569   87.9765    9.6074 C.ar    1  UNL1        0.0536
     11 C          59.6281   87.4250    8.4853 C.ar    1  UNL1        0.0045
     12 C          59.3396   88.2703    7.2803 C.ar    1  UNL1        0.0001
     13 C          59.8799   89.6671    7.1972 C.ar    1  UNL1        0.0000
     14 C          60.7087   90.2186    8.3191 C.ar    1  UNL1        0.0001
     15 C          60.9972   89.3733    9.5243 C.ar    1  UNL1        0.0045
     16 C          64.5659   82.5234   10.3998 C.3     1  UNL1        0.0897
     17 N          63.6108   83.6753   10.5029 N.3     1  UNL1       -0.2686
     18 C          63.3224   84.5206    9.2979 C.3     1  UNL1        0.0939
     19 C          62.3672   85.6726    9.4010 C.3     1  UNL1        0.1110
     20 N          61.7005   85.9793   10.7093 N.am    1  UNL1       -0.2732
     21 C          60.7454   87.1312   10.8124 C.2     1  UNL1        0.2491
     22 O          60.0787   87.4379   12.1207 O.2     1  UNL1       -0.2699
     23 C          61.9890   85.1339   11.9144 C.3     1  UNL1        0.1110
     24 C          62.9441   83.9820   11.8112 C.3     1  UNL1        0.0939
     25 C          60.9503   93.9632    0.7147 C.3     1  UNL1        0.2129
     26 C          59.9880   94.3458   -0.3704 C.2     1  UNL1        0.2430
     27 O          60.3689   94.1623   -1.8096 O.2     1  UNL1       -0.2735
     28 N          58.6449   94.9118   -0.0164 N.am    1  UNL1       -0.2955
     29 H          58.3949   95.0323    0.9282 H       1  UNL1        0.1499
     30 C          57.6825   95.2945   -1.1016 C.3     1  UNL1        0.1757
     31 C          56.8882   94.2357   -1.8072 C.2     1  UNL1        0.2425
     32 O          55.4176   94.1009   -1.5439 O.2     1  UNL1       -0.2733
     33 N          57.5644   93.3117   -2.7761 N.am    1  UNL1       -0.3046
     34 H          58.5296   93.4001   -2.9489 H       1  UNL1        0.1494
     35 C          56.7701   92.2528   -3.4818 C.3     1  UNL1        0.0717
     36 C          56.1605   91.7079   -4.7394 C.3     1  UNL1        0.0213
     37 C          56.0039   90.9637   -3.4465 C.3     1  UNL1        0.0213
     38 C          62.3964   94.3458    0.6039 C.1     1  UNL1        0.0881
     39 N          63.8426   94.7284    0.4931 N.1     1  UNL1       -0.1950
@<TRIPOS>BOND
     1    16    17    1
     2    17    18    1
     3    18    19    1
     4    19    20    1
     5    20    21   am
     6    21    22    2
     7    21    10    1
     8    10    11   ar
     9    11    12   ar
    10    12    13   ar
    11    13     1    1
    12     1     2   ar
    13     2     3   ar
    14     3     4   ar
    15     4     5   ar
    16     5     6   ar
    17     6    25    1
    18    25    38    1
    19    38    39    3
    20    25    26    1
    21    26    27    2
    22    26    28   am
    23    28    30    1
    24    30    31    1
    25    31    32    2
    26    31    33   am
    27    33    35    1
    28    35    36    1
    29    36    37    1
    30     6     7   ar
    31     7     8   ar
    32     8     9   ar
    33    13    14   ar
    34    14    15   ar
    35    20    23    1
    36    23    24    1
    37    24    17    1
    38    15    10   ar
    39     9     1   ar
    40     8     4   ar
    41    37    35    1
    42    28    29    1
    43    33    34    1
@<TRIPOS>MOLECULE
*****
 39 43 0 0 0
SMALL
GASTEIGER

@<TRIPOS>ATOM
      1 C          59.5954   90.4809    6.0090 C.ar    1  UNL1        0.0006
      2 C          58.1758   90.8009    5.6451 C.ar    1  UNL1        0.0016
      3 C          57.8825   91.6462    4.4412 C.ar    1  UNL1        0.0196
      4 C          59.0088   92.1717    3.6013 C.ar    1  UNL1        0.0875
      5 N          59.0275   93.0233    2.3665 N.ar    1  UNL1       -0.2412
      6 C          60.4586   93.2296    1.9674 C.ar    1  UNL1        0.1110
      7 S          61.3243   92.5056    2.9554 S.2     1  UNL1       -0.0693
      8 C          60.4283   91.8517    3.9652 C.ar    1  UNL1        0.0482
      9 C          60.7216   91.0064    5.1691 C.ar    1  UNL1        0.0080
     10 C          60.4754   87.9448    9.6207 C.ar    1  UNL1        0.0536
     11 C          61.0083   89.3446    9.5392 C.ar    1  UNL1        0.0045
     12 C          60.7150   90.1900    8.3354 C.ar    1  UNL1        0.0001
     13 C          59.8887   89.6355    7.2129 C.ar    1  UNL1        0.0000
     14 C          59.3558   88.2358    7.2943 C.ar    1  UNL1        0.0001
     15 C          59.6492   87.3904    8.4982 C.ar    1  UNL1        0.0045
     16 C          64.5405   82.4543   10.3815 C.3     1  UNL1        0.0897
     17 N          63.5976   83.6156   10.4922 N.3     1  UNL1       -0.2686
     18 C          63.3042   84.4609    9.2884 C.3     1  UNL1        0.0939
     19 C          62.3612   85.6223    9.3991 C.3     1  UNL1        0.1110
     20 N          61.7117   85.9382   10.7137 N.am    1  UNL1       -0.2732
     21 C          60.7688   87.0995   10.8245 C.2     1  UNL1        0.2491
     22 O          60.1192   87.4154   12.1391 O.2     1  UNL1       -0.2699
     23 C          62.0051   85.0928   11.9176 C.3     1  UNL1        0.1110
     24 C          62.9480   83.9315   11.8069 C.3     1  UNL1        0.0939
     25 C          60.9395   94.0211    0.7874 C.3     1  UNL1        0.2129
     26 C          62.3929   94.0069    0.4169 C.2     1  UNL1        0.2430
     27 O          62.9097   92.9861   -0.5531 O.2     1  UNL1       -0.2735
     28 N          63.3295   95.0135    1.0163 N.am    1  UNL1       -0.2955
     29 H          62.9903   95.6835    1.6530 H       1  UNL1        0.1499
     30 C          64.7830   94.9994    0.6458 C.3     1  UNL1        0.1757
     31 C          65.2367   95.6341   -0.6353 C.2     1  UNL1        0.2425
     32 O          66.3333   96.6574   -0.6182 O.2     1  UNL1       -0.2733
     33 N          64.5937   95.2454   -1.9336 N.am    1  UNL1       -0.3046
     34 H          63.8739   94.5738   -1.9448 H       1  UNL1        0.1494
     35 C          65.0473   95.8801   -3.2148 C.3     1  UNL1        0.0717
     36 C          65.9245   96.8558   -3.9418 C.3     1  UNL1        0.0213
     37 C          64.9556   96.0038   -4.7069 C.3     1  UNL1        0.0213
     38 C          59.9670   94.8267   -0.0220 C.1     1  UNL1        0.0881
     39 N          58.9944   95.6323   -0.8315 N.1     1  UNL1       -0.1950
@<TRIPOS>BOND
     1    16    17    1
     2    17    18    1
     3    18    19    1
     4    19    20    1
     5    20    21   am
     6    21    22    2
     7    21    10    1
     8    10    11   ar
     9    11    12   ar
    10    12    13   ar
    11    13     1    1
    12     1     2   ar
    13     2     3   ar
    14     3     4   ar
    15     4     5   ar
    16     5     6   ar
    17     6    25    1
    18    25    38    1
    19    38    39    3
    20    25    26    1
    21    26    27    2
    22    26    28   am
    23    28    30    1
    24    30    31    1
    25    31    32    2
    26    31    33   am
    27    33    35    1
    28    35    36    1
    29    36    37    1
    30     6     7   ar
    31     7     8   ar
    32     8     9   ar
    33    13    14   ar
    34    14    15   ar
    35    20    23    1
    36    23    24    1
    37    24    17    1
    38    15    10   ar
    39     9     1   ar
    40     8     4   ar
    41    37    35    1
    42    28    29    1
    43    33    34    1
@<TRIPOS>MOLECULE
*****
 39 43 0 0 0
SMALL
GASTEIGER

@<TRIPOS>ATOM
      1 C          59.6384   90.5130    5.9799 C.ar    1  UNL1        0.0006
      2 C          58.2303   90.9062    5.6442 C.ar    1  UNL1        0.0016
      3 C          57.9551   91.7487    4.4342 C.ar    1  UNL1        0.0196
      4 C          59.0880   92.1982    3.5598 C.ar    1  UNL1        0.0875
      5 N          59.1238   93.0292    2.3115 N.ar    1  UNL1       -0.2412
      6 C          60.5540   93.1495    1.8756 C.ar    1  UNL1        0.1110
      7 S          61.4021   92.3930    2.8546 S.2     1  UNL1       -0.0693
      8 C          60.4961   91.8050    3.8954 C.ar    1  UNL1        0.0482
      9 C          60.7713   90.9624    5.1055 C.ar    1  UNL1        0.0080
     10 C          60.4641   87.9852    9.6102 C.ar    1  UNL1        0.0536
     11 C          61.0225   89.3745    9.5208 C.ar    1  UNL1        0.0045
     12 C          60.7473   90.2171    8.3108 C.ar    1  UNL1        0.0001
     13 C          59.9136   89.6704    7.1900 C.ar    1  UNL1        0.0000
     14 C          59.3552   88.2811    7.2793 C.ar    1  UNL1        0.0001
     15 C          59.6305   87.4384    8.4894 C.ar    1  UNL1        0.0045
     16 C          64.5508   82.5232   10.4553 C.3     1  UNL1        0.0897
     17 N          63.5979   83.6780   10.5466 N.3     1  UNL1       -0.2686
     18 C          63.3227   84.5205    9.3365 C.3     1  UNL1        0.0939
     19 C          62.3698   85.6755    9.4277 C.3     1  UNL1        0.1110
     20 N          61.6922   85.9878   10.7290 N.am    1  UNL1       -0.2732
     21 C          60.7394   87.1426   10.8202 C.2     1  UNL1        0.2491
     22 O          60.0618   87.4549   12.1215 O.2     1  UNL1       -0.2699
     23 C          61.9675   85.1451   11.9391 C.3     1  UNL1        0.1110
     24 C          62.9204   83.9903   11.8479 C.3     1  UNL1        0.0939
     25 C          61.0492   93.8955    0.6721 C.3     1  UNL1        0.2129
     26 C          60.0737   94.5715   -0.2451 C.2     1  UNL1        0.2430
     27 O          59.2526   95.7244    0.2514 O.2     1  UNL1       -0.2735
     28 N          59.9193   94.0946   -1.6588 N.am    1  UNL1       -0.2955
     29 H          60.4582   93.3379   -1.9846 H       1  UNL1        0.1499
     30 C          58.9437   94.7706   -2.5761 C.3     1  UNL1        0.1757
     31 C          57.4791   94.7602   -2.2526 C.2     1  UNL1        0.2425
     32 O          56.7118   93.4718   -2.2903 O.2     1  UNL1       -0.2733
     33 N          56.7817   96.0381   -1.8913 N.am    1  UNL1       -0.3046
     34 H          57.2854   96.8837   -1.8665 H       1  UNL1        0.1494
     35 C          55.3170   96.0277   -1.5677 C.3     1  UNL1        0.0717
     36 C          54.1533   96.5751   -0.7956 C.3     1  UNL1        0.0213
     37 C          53.9439   95.4624   -1.7795 C.3     1  UNL1        0.0213
     38 C          62.5200   93.9655    0.3859 C.1     1  UNL1        0.0881
     39 N          63.9908   94.0354    0.0997 N.1     1  UNL1       -0.1950
@<TRIPOS>BOND
     1    16    17    1
     2    17    18    1
     3    18    19    1
     4    19    20    1
     5    20    21   am
     6    21    22    2
     7    21    10    1
     8    10    11   ar
     9    11    12   ar
    10    12    13   ar
    11    13     1    1
    12     1     2   ar
    13     2     3   ar
    14     3     4   ar
    15     4     5   ar
    16     5     6   ar
    17     6    25    1
    18    25    38    1
    19    38    39    3
    20    25    26    1
    21    26    27    2
    22    26    28   am
    23    28    30    1
    24    30    31    1
    25    31    32    2
    26    31    33   am
    27    33    35    1
    28    35    36    1
    29    36    37    1
    30     6     7   ar
    31     7     8   ar
    32     8     9   ar
    33    13    14   ar
    34    14    15   ar
    35    20    23    1
    36    23    24    1
    37    24    17    1
    38    15    10   ar
    39     9     1   ar
    40     8     4   ar
    41    37    35    1
    42    28    29    1
    43    33    34    1
@<TRIPOS>MOLECULE
*****
 39 43 0 0 0
SMALL
GASTEIGER

@<TRIPOS>ATOM
      1 C          59.5807   90.4931    6.0052 C.ar    1  UNL1        0.0006
      2 C          58.1592   90.8110    5.6472 C.ar    1  UNL1        0.0016
      3 C          57.8601   91.6643    4.4505 C.ar    1  UNL1        0.0196
      4 C          58.9825   92.1998    3.6117 C.ar    1  UNL1        0.0875
      5 N          58.9952   93.0606    2.3833 N.ar    1  UNL1       -0.2412
      6 C          60.4246   93.2748    1.9822 C.ar    1  UNL1        0.1110
      7 S          61.2953   92.5462    2.9626 S.2     1  UNL1       -0.0693
      8 C          60.4040   91.8819    3.9697 C.ar    1  UNL1        0.0482
      9 C          60.7031   91.0285    5.1664 C.ar    1  UNL1        0.0080
     10 C          60.4783   87.9329    9.5956 C.ar    1  UNL1        0.0536
     11 C          59.6634   87.3792    8.4643 C.ar    1  UNL1        0.0045
     12 C          59.3643   88.2326    7.2676 C.ar    1  UNL1        0.0001
     13 C          59.8799   89.6397    7.2020 C.ar    1  UNL1        0.0000
     14 C          60.6947   90.1934    8.3332 C.ar    1  UNL1        0.0001
     15 C          60.9939   89.3400    9.5300 C.ar    1  UNL1        0.0045
     16 C          64.6158   82.4921   10.3215 C.3     1  UNL1        0.0897
     17 N          63.6562   83.6389   10.4392 N.3     1  UNL1       -0.2686
     18 C          63.3570   84.4923    9.2425 C.3     1  UNL1        0.0939
     19 C          62.3974   85.6392    9.3602 C.3     1  UNL1        0.1110
     20 N          61.7370   85.9327   10.6746 N.am    1  UNL1       -0.2732
     21 C          60.7774   87.0795   10.7923 C.2     1  UNL1        0.2491
     22 O          60.1170   87.3730   12.1067 O.2     1  UNL1       -0.2699
     23 C          62.0362   85.0792   11.8713 C.3     1  UNL1        0.1110
     24 C          62.9958   83.9324   11.7536 C.3     1  UNL1        0.0939
     25 C          60.8999   94.0766    0.8069 C.3     1  UNL1        0.2129
     26 C          62.2023   93.7371    0.1448 C.2     1  UNL1        0.2430
     27 O          63.4702   93.7244    0.9462 O.2     1  UNL1       -0.2735
     28 N          62.2368   93.4104   -1.3188 N.am    1  UNL1       -0.2955
     29 H          61.4046   93.4187   -1.8447 H       1  UNL1        0.1499
     30 C          63.5392   93.0708   -1.9810 C.3     1  UNL1        0.1757
     31 C          63.6206   92.9860   -3.4764 C.2     1  UNL1        0.2425
     32 O          62.5718   93.6442   -4.3231 O.2     1  UNL1       -0.2733
     33 N          64.7507   92.2431   -4.1250 N.am    1  UNL1       -0.3046
     34 H          65.4390   91.8111   -3.5693 H       1  UNL1        0.1494
     35 C          64.8321   92.1583   -5.6205 C.3     1  UNL1        0.0717
     36 C          65.3003   91.4516   -6.8579 C.3     1  UNL1        0.0213
     37 C          64.5049   92.7181   -6.9730 C.3     1  UNL1        0.0213
     38 C          60.0728   95.2180    0.2939 C.1     1  UNL1        0.0881
     39 N          59.2457   96.3593   -0.2192 N.1     1  UNL1       -0.1950
@<TRIPOS>BOND
     1    16    17    1
     2    17    18    1
     3    18    19    1
     4    19    20    1
     5    20    21   am
     6    21    22    2
     7    21    10    1
     8    10    11   ar
     9    11    12   ar
    10    12    13   ar
    11    13     1    1
    12     1     2   ar
    13     2     3   ar
    14     3     4   ar
    15     4     5   ar
    16     5     6   ar
    17     6    25    1
    18    25    38    1
    19    38    39    3
    20    25    26    1
    21    26    27    2
    22    26    28   am
    23    28    30    1
    24    30    31    1
    25    31    32    2
    26    31    33   am
    27    33    35    1
    28    35    36    1
    29    36    37    1
    30     6     7   ar
    31     7     8   ar
    32     8     9   ar
    33    13    14   ar
    34    14    15   ar
    35    20    23    1
    36    23    24    1
    37    24    17    1
    38    15    10   ar
    39     9     1   ar
    40     8     4   ar
    41    37    35    1
    42    28    29    1
    43    33    34    1
@<TRIPOS>MOLECULE
*****
 39 43 0 0 0
SMALL
GASTEIGER

@<TRIPOS>ATOM
      1 C          60.6758   92.5563    3.0860 C.ar    1  UNL1        0.0006
      2 C          59.2024   92.8096    3.2080 C.ar    1  UNL1        0.0016
      3 C          58.4013   92.0883    4.2511 C.ar    1  UNL1        0.0196
      4 C          59.0737   91.1139    5.1722 C.ar    1  UNL1        0.0875
      5 N          58.5476   90.2610    6.2885 N.ar    1  UNL1       -0.2412
      6 C          59.6959   89.4807    6.8563 C.ar    1  UNL1        0.1110
      7 S          60.9316   89.8513    6.0910 S.2     1  UNL1       -0.0693
      8 C          60.5471   90.8607    5.0502 C.ar    1  UNL1        0.0482
      9 C          61.3481   91.5819    4.0071 C.ar    1  UNL1        0.0080
     10 C          63.0792   94.7201   -0.0433 C.ar    1  UNL1        0.0536
     11 C          61.6549   95.1143    0.2140 C.ar    1  UNL1        0.0045
     12 C          60.8539   94.3931    1.2571 C.ar    1  UNL1        0.0001
     13 C          61.4770   93.2776    2.0429 C.ar    1  UNL1        0.0000
     14 C          62.9011   92.8833    1.7856 C.ar    1  UNL1        0.0001
     15 C          63.7023   93.6046    0.7424 C.ar    1  UNL1        0.0045
     16 C          64.4316   93.1113   -6.5879 C.3     1  UNL1        0.0897
     17 N          64.2938   93.6938   -5.2126 N.3     1  UNL1       -0.2686
     18 C          63.4927   92.9726   -4.1695 C.3     1  UNL1        0.0939
     19 C          63.3549   93.5551   -2.7940 C.3     1  UNL1        0.1110
     20 N          64.0181   94.8588   -2.4618 N.am    1  UNL1       -0.2732
     21 C          63.8802   95.4413   -1.0864 C.2     1  UNL1        0.2491
     22 O          64.5435   96.7450   -0.7541 O.2     1  UNL1       -0.2699
     23 C          64.8192   95.5800   -3.5049 C.3     1  UNL1        0.1110
     24 C          64.9570   94.9975   -4.8803 C.3     1  UNL1        0.0939
     25 C          59.6216   88.5017    7.9904 C.3     1  UNL1        0.2129
     26 C          59.9097   88.9535    9.3914 C.2     1  UNL1        0.2430
     27 O          59.7256   88.0045   10.5383 O.2     1  UNL1       -0.2735
     28 N          60.3818   90.3544    9.6454 N.am    1  UNL1       -0.2955
     29 H          60.5027   90.9772    8.8926 H       1  UNL1        0.1499
     30 C          60.6699   90.8063   11.0465 C.3     1  UNL1        0.1757
     31 C          62.0012   90.5106   11.6711 C.2     1  UNL1        0.2425
     32 O          63.2567   90.6497   10.8622 O.2     1  UNL1       -0.2733
     33 N          62.0770   90.0757   13.1046 N.am    1  UNL1       -0.3046
     34 H          61.2529   89.9844   13.6355 H       1  UNL1        0.1494
     35 C          63.4083   89.7800   13.7293 C.3     1  UNL1        0.0717
     36 C          64.3357   88.8244   14.4198 C.3     1  UNL1        0.0213
     37 C          64.7867   90.2233   14.1208 C.3     1  UNL1        0.0213
     38 C          59.2592   87.0708    7.7234 C.1     1  UNL1        0.0881
     39 N          58.8968   85.6400    7.4563 N.1     1  UNL1       -0.1950
@<TRIPOS>BOND
     1    16    17    1
     2    17    18    1
     3    18    19    1
     4    19    20    1
     5    20    21   am
     6    21    22    2
     7    21    10    1
     8    10    11   ar
     9    11    12   ar
    10    12    13   ar
    11    13     1    1
    12     1     2   ar
    13     2     3   ar
    14     3     4   ar
    15     4     5   ar
    16     5     6   ar
    17     6    25    1
    18    25    38    1
    19    38    39    3
    20    25    26    1
    21    26    27    2
    22    26    28   am
    23    28    30    1
    24    30    31    1
    25    31    32    2
    26    31    33   am
    27    33    35    1
    28    35    36    1
    29    36    37    1
    30     6     7   ar
    31     7     8   ar
    32     8     9   ar
    33    13    14   ar
    34    14    15   ar
    35    20    23    1
    36    23    24    1
    37    24    17    1
    38    15    10   ar
    39     9     1   ar
    40     8     4   ar
    41    37    35    1
    42    28    29    1
    43    33    34    1
@<TRIPOS>MOLECULE
*****
 39 43 0 0 0
SMALL
GASTEIGER

@<TRIPOS>ATOM
      1 C          60.8579   92.6533    2.7305 C.ar    1  UNL1        0.0006
      2 C          59.3807   92.9028    2.8038 C.ar    1  UNL1        0.0016
      3 C          58.5623   92.2500    3.8781 C.ar    1  UNL1        0.0196
      4 C          59.2212   91.3478    4.8790 C.ar    1  UNL1        0.0875
      5 N          58.6770   90.5710    6.0412 N.ar    1  UNL1       -0.2412
      6 C          59.8180   89.8415    6.6861 C.ar    1  UNL1        0.1110
      7 S          61.0673   90.1674    5.9225 S.2     1  UNL1       -0.0693
      8 C          60.6984   91.0983    4.8057 C.ar    1  UNL1        0.0482
      9 C          61.5168   91.7511    3.7314 C.ar    1  UNL1        0.0080
     10 C          63.3132   94.6117   -0.4924 C.ar    1  UNL1        0.0536
     11 C          61.8379   94.8705   -0.4118 C.ar    1  UNL1        0.0045
     12 C          61.0195   94.2177    0.6624 C.ar    1  UNL1        0.0001
     13 C          61.6764   93.3061    1.6562 C.ar    1  UNL1        0.0000
     14 C          63.1517   93.0474    1.5757 C.ar    1  UNL1        0.0001
     15 C          63.9701   93.7001    0.5014 C.ar    1  UNL1        0.0045
     16 C          64.4237   92.8010   -7.0297 C.3     1  UNL1        0.0897
     17 N          64.3507   93.4169   -5.6640 N.3     1  UNL1       -0.2686
     18 C          63.5323   92.7641   -4.5897 C.3     1  UNL1        0.0939
     19 C          63.4593   93.3800   -3.2239 C.3     1  UNL1        0.1110
     20 N          64.2046   94.6486   -2.9324 N.am    1  UNL1       -0.2732
     21 C          64.1316   95.2645   -1.5667 C.2     1  UNL1        0.2491
     22 O          64.8770   96.5331   -1.2752 O.2     1  UNL1       -0.2699
     23 C          65.0230   95.3014   -4.0068 C.3     1  UNL1        0.1110
     24 C          65.0961   94.6855   -5.3725 C.3     1  UNL1        0.0939
     25 C          59.7259   88.9437    7.8843 C.3     1  UNL1        0.2129
     26 C          60.3825   89.3425    9.1725 C.2     1  UNL1        0.2430
     27 O          59.8010   90.4511    9.9990 O.2     1  UNL1       -0.2735
     28 N          61.6206   88.6329    9.6344 N.am    1  UNL1       -0.2955
     29 H          62.0023   87.9053    9.0920 H       1  UNL1        0.1499
     30 C          62.2773   89.0317   10.9228 C.3     1  UNL1        0.1757
     31 C          62.7561   87.9789   11.8779 C.2     1  UNL1        0.2425
     32 O          63.5360   88.3715   13.0976 O.2     1  UNL1       -0.2733
     33 N          62.4549   86.5335   11.6134 N.am    1  UNL1       -0.3046
     34 H          61.9430   86.2758   10.8129 H       1  UNL1        0.1494
     35 C          62.9337   85.4806   12.5685 C.3     1  UNL1        0.0717
     36 C          62.8087   84.1062   13.1564 C.3     1  UNL1        0.0213
     37 C          63.8880   85.0313   13.6350 C.3     1  UNL1        0.0213
     38 C          58.9773   87.6470    7.7940 C.1     1  UNL1        0.0881
     39 N          58.2286   86.3504    7.7038 N.1     1  UNL1       -0.1950
@<TRIPOS>BOND
     1    16    17    1
     2    17    18    1
     3    18    19    1
     4    19    20    1
     5    20    21   am
     6    21    22    2
     7    21    10    1
     8    10    11   ar
     9    11    12   ar
    10    12    13   ar
    11    13     1    1
    12     1     2   ar
    13     2     3   ar
    14     3     4   ar
    15     4     5   ar
    16     5     6   ar
    17     6    25    1
    18    25    38    1
    19    38    39    3
    20    25    26    1
    21    26    27    2
    22    26    28   am
    23    28    30    1
    24    30    31    1
    25    31    32    2
    26    31    33   am
    27    33    35    1
    28    35    36    1
    29    36    37    1
    30     6     7   ar
    31     7     8   ar
    32     8     9   ar
    33    13    14   ar
    34    14    15   ar
    35    20    23    1
    36    23    24    1
    37    24    17    1
    38    15    10   ar
    39     9     1   ar
    40     8     4   ar
    41    37    35    1
    42    28    29    1
    43    33    34    1
@<TRIPOS>MOLECULE
*****
 39 43 0 0 0
SMALL
GASTEIGER

@<TRIPOS>ATOM
      1 C          59.9830   89.5335    6.7040 C.ar    1  UNL1        0.0006
      2 C          58.9102   88.4859    6.7451 C.ar    1  UNL1        0.0016
      3 C          58.9698   87.3912    7.7688 C.ar    1  UNL1        0.0196
      4 C          60.1022   87.3440    8.7514 C.ar    1  UNL1        0.0875
      5 N          60.4252   86.3932    9.8658 N.ar    1  UNL1       -0.2412
      6 C          61.6976   86.8532   10.5133 C.ar    1  UNL1        0.1110
      7 S          62.1610   88.0883    9.7992 S.2     1  UNL1       -0.0693
      8 C          61.1750   88.3916    8.7103 C.ar    1  UNL1        0.0482
      9 C          61.1154   89.4863    7.6866 C.ar    1  UNL1        0.0080
     10 C          59.8042   92.8178    3.6328 C.ar    1  UNL1        0.0536
     11 C          58.5723   92.4421    4.4018 C.ar    1  UNL1        0.0045
     12 C          58.6319   91.3473    5.4255 C.ar    1  UNL1        0.0001
     13 C          59.9234   90.6283    5.6802 C.ar    1  UNL1        0.0000
     14 C          61.1553   91.0039    4.9113 C.ar    1  UNL1        0.0001
     15 C          61.0957   92.0987    3.8876 C.ar    1  UNL1        0.0045
     16 C          58.5834   92.5949   -3.1280 C.3     1  UNL1        0.0897
     17 N          58.8737   92.9243   -1.6937 N.3     1  UNL1       -0.2686
     18 C          58.9333   91.8296   -0.6701 C.3     1  UNL1        0.0939
     19 C          59.2236   92.1590    0.7643 C.3     1  UNL1        0.1110
     20 N          59.4543   93.5831    1.1749 N.am    1  UNL1       -0.2732
     21 C          59.7446   93.9125    2.6092 C.2     1  UNL1        0.2491
     22 O          59.9752   95.3367    3.0198 O.2     1  UNL1       -0.2699
     23 C          59.3947   94.6779    0.1511 C.3     1  UNL1        0.1110
     24 C          59.1044   94.3485   -1.2831 C.3     1  UNL1        0.0939
     25 C          62.3858   86.1940   11.6717 C.3     1  UNL1        0.2129
     26 C          63.0358   87.0311   12.7332 C.2     1  UNL1        0.2430
     27 O          63.7067   86.3722   13.9018 O.2     1  UNL1       -0.2735
     28 N          63.0149   88.5271   12.6260 N.am    1  UNL1       -0.2955
     29 H          62.5746   88.9595   11.8589 H       1  UNL1        0.1499
     30 C          63.6649   89.3642   13.6875 C.3     1  UNL1        0.1757
     31 C          64.5313   90.5259   13.3006 C.2     1  UNL1        0.2425
     32 O          65.6761   90.9334   14.1801 O.2     1  UNL1       -0.2733
     33 N          64.2531   91.2801   12.0342 N.am    1  UNL1       -0.3046
     34 H          63.5017   91.0126   11.4570 H       1  UNL1        0.1494
     35 C          65.1195   92.4418   11.6472 C.3     1  UNL1        0.0717
     36 C          65.7768   93.2761   10.5880 C.3     1  UNL1        0.0213
     37 C          65.9630   93.6195   12.0362 C.3     1  UNL1        0.0213
     38 C          62.4241   84.6976   11.7685 C.1     1  UNL1        0.0881
     39 N          62.4623   83.2012   11.8653 N.1     1  UNL1       -0.1950
@<TRIPOS>BOND
     1    16    17    1
     2    17    18    1
     3    18    19    1
     4    19    20    1
     5    20    21   am
     6    21    22    2
     7    21    10    1
     8    10    11   ar
     9    11    12   ar
    10    12    13   ar
    11    13     1    1
    12     1     2   ar
    13     2     3   ar
    14     3     4   ar
    15     4     5   ar
    16     5     6   ar
    17     6    25    1
    18    25    38    1
    19    38    39    3
    20    25    26    1
    21    26    27    2
    22    26    28   am
    23    28    30    1
    24    30    31    1
    25    31    32    2
    26    31    33   am
    27    33    35    1
    28    35    36    1
    29    36    37    1
    30     6     7   ar
    31     7     8   ar
    32     8     9   ar
    33    13    14   ar
    34    14    15   ar
    35    20    23    1
    36    23    24    1
    37    24    17    1
    38    15    10   ar
    39     9     1   ar
    40     8     4   ar
    41    37    35    1
    42    28    29    1
    43    33    34    1
@<TRIPOS>MOLECULE
*****
 39 43 0 0 0
SMALL
GASTEIGER

@<TRIPOS>ATOM
      1 C          59.9268   92.0803    3.8716 C.ar    1  UNL1        0.0006
      2 C          58.4426   91.9857    4.0669 C.ar    1  UNL1        0.0016
      3 C          57.8837   91.1293    5.1643 C.ar    1  UNL1        0.0196
      4 C          58.8090   90.3675    6.0663 C.ar    1  UNL1        0.0875
      5 N          58.5514   89.4497    7.2245 N.ar    1  UNL1       -0.2412
      6 C          59.8765   88.9772    7.7449 C.ar    1  UNL1        0.1110
      7 S          60.9529   89.6029    6.9084 S.2     1  UNL1       -0.0693
      8 C          60.2932   90.4622    5.8709 C.ar    1  UNL1        0.0482
      9 C          60.8521   91.3186    4.7736 C.ar    1  UNL1        0.0080
     10 C          61.6037   94.6497    0.5796 C.ar    1  UNL1        0.0536
     11 C          60.2802   94.9914    1.1975 C.ar    1  UNL1        0.0045
     12 C          59.7213   94.1350    2.2948 C.ar    1  UNL1        0.0001
     13 C          60.4858   92.9368    2.7743 C.ar    1  UNL1        0.0000
     14 C          61.8091   92.5950    2.1564 C.ar    1  UNL1        0.0001
     15 C          62.3681   93.4514    1.0590 C.ar    1  UNL1        0.0045
     16 C          60.3525   94.6875   -6.1793 C.3     1  UNL1        0.0897
     17 N          60.8051   94.8921   -4.7639 N.3     1  UNL1       -0.2686
     18 C          60.2461   94.0357   -3.6666 C.3     1  UNL1        0.0939
     19 C          60.6986   94.2403   -2.2511 C.3     1  UNL1        0.1110
     20 N          61.7101   95.3014   -1.9331 N.am    1  UNL1       -0.2732
     21 C          62.1626   95.5061   -0.5177 C.2     1  UNL1        0.2491
     22 O          63.1740   96.5672   -0.1996 O.2     1  UNL1       -0.2699
     23 C          62.2690   96.1579   -3.0305 C.3     1  UNL1        0.1110
     24 C          61.8165   95.9532   -4.4458 C.3     1  UNL1        0.0939
     25 C          60.0880   88.0429    8.8993 C.3     1  UNL1        0.2129
     26 C          60.7501   86.7153    8.6780 C.2     1  UNL1        0.2430
     27 O          60.1441   85.7237    7.7296 O.2     1  UNL1       -0.2735
     28 N          62.0182   86.3792    9.4052 N.am    1  UNL1       -0.2955
     29 H          62.4160   87.0299   10.0277 H       1  UNL1        0.1499
     30 C          62.6804   85.0515    9.1840 C.3     1  UNL1        0.1757
     31 C          63.1526   84.2442   10.3567 C.2     1  UNL1        0.2425
     32 O          64.2939   83.2842   10.1956 O.2     1  UNL1       -0.2733
     33 N          62.4835   84.3969   11.6904 N.am    1  UNL1       -0.3046
     34 H          61.7345   85.0269   11.7961 H       1  UNL1        0.1494
     35 C          62.9558   83.5896   12.8632 C.3     1  UNL1        0.0717
     36 C          64.0620   82.8975   13.6029 C.3     1  UNL1        0.0213
     37 C          62.6674   82.8835   14.1548 C.3     1  UNL1        0.0213
     38 C          59.6375   88.4364   10.2749 C.1     1  UNL1        0.0881
     39 N          59.1870   88.8298   11.6504 N.1     1  UNL1       -0.1950
@<TRIPOS>BOND
     1    16    17    1
     2    17    18    1
     3    18    19    1
     4    19    20    1
     5    20    21   am
     6    21    22    2
     7    21    10    1
     8    10    11   ar
     9    11    12   ar
    10    12    13   ar
    11    13     1    1
    12     1     2   ar
    13     2     3   ar
    14     3     4   ar
    15     4     5   ar
    16     5     6   ar
    17     6    25    1
    18    25    38    1
    19    38    39    3
    20    25    26    1
    21    26    27    2
    22    26    28   am
    23    28    30    1
    24    30    31    1
    25    31    32    2
    26    31    33   am
    27    33    35    1
    28    35    36    1
    29    36    37    1
    30     6     7   ar
    31     7     8   ar
    32     8     9   ar
    33    13    14   ar
    34    14    15   ar
    35    20    23    1
    36    23    24    1
    37    24    17    1
    38    15    10   ar
    39     9     1   ar
    40     8     4   ar
    41    37    35    1
    42    28    29    1
    43    33    34    1
@<TRIPOS>MOLECULE
*****
 39 43 0 0 0
SMALL
GASTEIGER

@<TRIPOS>ATOM
      1 C          60.0425   89.3521    7.0119 C.ar    1  UNL1        0.0006
      2 C          58.8913   88.4310    7.2879 C.ar    1  UNL1        0.0016
      3 C          58.9470   87.4900    8.4547 C.ar    1  UNL1        0.0196
      4 C          60.1537   87.4702    9.3454 C.ar    1  UNL1        0.0875
      5 N          60.4911   86.6579   10.5606 N.ar    1  UNL1       -0.2412
      6 C          61.8508   87.0771   11.0354 C.ar    1  UNL1        0.1110
      7 S          62.3537   88.1485   10.1138 S.2     1  UNL1       -0.0693
      8 C          61.3048   88.3914    9.0694 C.ar    1  UNL1        0.0482
      9 C          61.2492   89.3324    7.9026 C.ar    1  UNL1        0.0080
     10 C          59.8757   92.1752    3.5114 C.ar    1  UNL1        0.0536
     11 C          58.6299   91.8709    4.2896 C.ar    1  UNL1        0.0045
     12 C          58.6855   90.9299    5.4563 C.ar    1  UNL1        0.0001
     13 C          59.9869   90.2932    5.8450 C.ar    1  UNL1        0.0000
     14 C          61.2326   90.5975    5.0669 C.ar    1  UNL1        0.0001
     15 C          61.1771   91.5385    3.9001 C.ar    1  UNL1        0.0045
     16 C          64.8933   95.3458    0.0444 C.3     1  UNL1        0.0897
     17 N          63.6250   94.7884    0.6194 N.3     1  UNL1       -0.2686
     18 C          63.6806   93.8474    1.7862 C.3     1  UNL1        0.0939
     19 C          62.4123   93.2900    2.3613 C.3     1  UNL1        0.1110
     20 N          61.0884   93.6736    1.7696 N.am    1  UNL1       -0.2732
     21 C          59.8201   93.1162    2.3447 C.2     1  UNL1        0.2491
     22 O          58.4962   93.4998    1.7529 O.2     1  UNL1       -0.2699
     23 C          61.0328   94.6147    0.6028 C.3     1  UNL1        0.1110
     24 C          62.3011   95.1720    0.0277 C.3     1  UNL1        0.0939
     25 C          62.5796   86.5224   12.2234 C.3     1  UNL1        0.2129
     26 C          63.2789   87.4485   13.1738 C.2     1  UNL1        0.2430
     27 O          64.0960   86.8897   14.3008 O.2     1  UNL1       -0.2735
     28 N          63.1609   88.9334   12.9973 N.am    1  UNL1       -0.2955
     29 H          62.6246   89.3001   12.2577 H       1  UNL1        0.1499
     30 C          63.8602   89.8595   13.9478 C.3     1  UNL1        0.1757
     31 C          64.6767   91.0010   13.4185 C.2     1  UNL1        0.2425
     32 O          65.6899   91.6703   14.2992 O.2     1  UNL1       -0.2733
     33 N          64.4800   91.4733   12.0085 N.am    1  UNL1       -0.3046
     34 H          63.8150   91.0341   11.4305 H       1  UNL1        0.1494
     35 C          65.2965   92.6149   11.4791 C.3     1  UNL1        0.0717
     36 C          66.0130   93.2825   10.3428 C.3     1  UNL1        0.0213
     37 C          65.9943   93.9244   11.6984 C.3     1  UNL1        0.0213
     38 C          62.6092   85.0416   12.4608 C.1     1  UNL1        0.0881
     39 N          62.6388   83.5608   12.6982 N.1     1  UNL1       -0.1950
@<TRIPOS>BOND
     1    16    17    1
     2    17    18    1
     3    18    19    1
     4    19    20    1
     5    20    21   am
     6    21    22    2
     7    21    10    1
     8    10    11   ar
     9    11    12   ar
    10    12    13   ar
    11    13     1    1
    12     1     2   ar
    13     2     3   ar
    14     3     4   ar
    15     4     5   ar
    16     5     6   ar
    17     6    25    1
    18    25    38    1
    19    38    39    3
    20    25    26    1
    21    26    27    2
    22    26    28   am
    23    28    30    1
    24    30    31    1
    25    31    32    2
    26    31    33   am
    27    33    35    1
    28    35    36    1
    29    36    37    1
    30     6     7   ar
    31     7     8   ar
    32     8     9   ar
    33    13    14   ar
    34    14    15   ar
    35    20    23    1
    36    23    24    1
    37    24    17    1
    38    15    10   ar
    39     9     1   ar
    40     8     4   ar
    41    37    35    1
    42    28    29    1
    43    33    34    1
