@<TRIPOS>MOLECULE
*****
 31 34 0 0 0
SMALL
GASTEIGER

@<TRIPOS>ATOM
      1 N          62.9679   91.1390   13.1376 N.am    1  UNL1       -0.2683
      2 C          62.8949   89.7573   12.5582 C.2     1  UNL1        0.3047
      3 O          63.8916   88.7161   12.9738 O.2     1  UNL1       -0.2525
      4 N          61.8253   89.4167   11.5633 N.am    1  UNL1       -0.2863
      5 H          62.3138   91.8223   12.8648 H       1  UNL1        0.1564
      6 H          61.1712   90.1001   11.2905 H       1  UNL1        0.1512
      7 C          61.7524   88.0351   10.9839 C.3     1  UNL1        0.1021
      8 C          62.4013   86.8870   11.6985 C.3     1  UNL1        0.0642
      9 C          62.3283   85.5052   11.1191 C.3     1  UNL1        0.1353
     10 C          62.5305   84.0263   10.9714 C.3     1  UNL1        0.0437
     11 C          63.1205   85.2251   12.3617 C.3     1  UNL1        0.0437
     12 O          61.6064   85.2717    9.8252 O.3     1  UNL1       -0.4805
     13 C          60.9574   86.4199    9.1106 C.ar    1  UNL1        0.1631
     14 C          60.2355   86.1863    7.8167 C.ar    1  UNL1        0.1758
     15 F          60.1625   84.8046    7.2374 F       1  UNL1       -0.2009
     16 C          59.5865   87.3345    7.1022 C.ar    1  UNL1        0.0624
     17 C          59.6595   88.7161    7.6815 C.ar    1  UNL1        0.1423
     18 F          59.0105   89.8643    6.9669 F       1  UNL1       -0.2041
     19 C          60.3814   88.9496    8.9754 C.ar    1  UNL1        0.0301
     20 C          61.0304   87.8015    9.6900 C.ar    1  UNL1        0.0341
     21 C          67.3648   92.3849   10.2454 C.3     1  UNL1        0.0521
     22 C          67.0679   92.3288   11.7146 C.ar    1  UNL1        0.0594
     23 C          65.7012   91.9322   12.1890 C.ar    1  UNL1        0.0160
     24 C          65.4043   91.8761   13.6582 C.ar    1  UNL1        0.0162
     25 C          64.0376   91.4795   14.1325 C.ar    1  UNL1        0.0516
     26 C          63.7406   91.4234   15.6017 C.ar    1  UNL1        0.0147
     27 C          64.8103   91.7640   16.5967 C.ar    1  UNL1        0.0013
     28 C          66.1769   92.1606   16.1223 C.ar    1  UNL1        0.0016
     29 C          66.4739   92.2167   14.6531 C.ar    1  UNL1        0.0204
     30 C          67.8405   92.6133   14.1788 C.ar    1  UNL1        0.0984
     31 N          68.1375   92.6694   12.7096 N.ar    1  UNL1       -0.2481
@<TRIPOS>BOND
     1    21    22    1
     2    22    23   ar
     3    23    24   ar
     4    24    25   ar
     5    25     1    1
     6     1     2   am
     7     2     3    2
     8     2     4   am
     9     7     4    1
    10     7     8    1
    11     8     9    1
    12     9    10    1
    13     9    11    1
    14     9    12    1
    15    12    13    1
    16    13    14   ar
    17    14    15    1
    18    14    16   ar
    19    16    17   ar
    20    17    18    1
    21    17    19   ar
    22    19    20   ar
    23    25    26   ar
    24    26    27   ar
    25    27    28   ar
    26    28    29   ar
    27    29    30   ar
    28    30    31   ar
    29    31    22   ar
    30    29    24   ar
    31    20     7    1
    32    20    13   ar
    33     1     5    1
    34     4     6    1
@<TRIPOS>MOLECULE
*****
 31 34 0 0 0
SMALL
GASTEIGER

@<TRIPOS>ATOM
      1 N          62.4073   85.8961    8.9050 N.am    1  UNL1       -0.2683
      2 C          62.3692   85.1064   10.1798 C.2     1  UNL1        0.3047
      3 O          61.2946   85.3691   11.1929 O.2     1  UNL1       -0.2525
      4 N          63.4056   84.0542   10.4416 N.am    1  UNL1       -0.2863
      5 H          63.1126   85.7237    8.2401 H       1  UNL1        0.1564
      6 H          64.1109   83.8819    9.7767 H       1  UNL1        0.1512
      7 C          63.3675   83.2647   11.7163 C.3     1  UNL1        0.1021
      8 C          63.0508   81.7989   11.6815 C.3     1  UNL1        0.0642
      9 C          63.0126   81.0094   12.9564 C.3     1  UNL1        0.1353
     10 C          62.8592   79.8444   13.8887 C.3     1  UNL1        0.0437
     11 C          62.6807   79.9286   11.9706 C.3     1  UNL1        0.0437
     12 O          63.2913   81.6856   14.2660 O.3     1  UNL1       -0.4805
     13 C          63.6080   83.1513   14.3008 C.ar    1  UNL1        0.1631
     14 C          63.8866   83.8275   15.6104 C.ar    1  UNL1        0.1758
     15 F          63.8485   83.0380   16.8852 F       1  UNL1       -0.2009
     16 C          64.2034   85.2933   15.6452 C.ar    1  UNL1        0.0624
     17 C          64.2415   86.0828   14.3704 C.ar    1  UNL1        0.1423
     18 F          64.5583   87.5486   14.4052 F       1  UNL1       -0.2041
     19 C          63.9629   85.4066   13.0608 C.ar    1  UNL1        0.0301
     20 C          63.6461   83.9409   13.0260 C.ar    1  UNL1        0.0341
     21 C          63.3565   89.8550   12.4653 C.3     1  UNL1        0.0521
     22 C          62.3419   89.6544   11.3790 C.ar    1  UNL1        0.0594
     23 C          62.3637   88.4017   10.5543 C.ar    1  UNL1        0.0160
     24 C          61.3490   88.2011    9.4679 C.ar    1  UNL1        0.0162
     25 C          61.3708   86.9483    8.6433 C.ar    1  UNL1        0.0516
     26 C          60.3561   86.7477    7.5569 C.ar    1  UNL1        0.0147
     27 C          59.3196   87.8000    7.2952 C.ar    1  UNL1        0.0013
     28 C          59.2978   89.0528    8.1198 C.ar    1  UNL1        0.0016
     29 C          60.3125   89.2533    9.2062 C.ar    1  UNL1        0.0204
     30 C          60.2907   90.5061   10.0309 C.ar    1  UNL1        0.0984
     31 N          61.3054   90.7066   11.1172 N.ar    1  UNL1       -0.2481
@<TRIPOS>BOND
     1    21    22    1
     2    22    23   ar
     3    23    24   ar
     4    24    25   ar
     5    25     1    1
     6     1     2   am
     7     2     3    2
     8     2     4   am
     9     7     4    1
    10     7     8    1
    11     8     9    1
    12     9    10    1
    13     9    11    1
    14     9    12    1
    15    12    13    1
    16    13    14   ar
    17    14    15    1
    18    14    16   ar
    19    16    17   ar
    20    17    18    1
    21    17    19   ar
    22    19    20   ar
    23    25    26   ar
    24    26    27   ar
    25    27    28   ar
    26    28    29   ar
    27    29    30   ar
    28    30    31   ar
    29    31    22   ar
    30    29    24   ar
    31    20     7    1
    32    20    13   ar
    33     1     5    1
    34     4     6    1
@<TRIPOS>MOLECULE
*****
 31 34 0 0 0
SMALL
GASTEIGER

@<TRIPOS>ATOM
      1 N          63.5570   83.6994   10.3227 N.am    1  UNL1       -0.2683
      2 C          62.6087   84.8586   10.2387 C.2     1  UNL1        0.3047
      3 O          61.5195   85.0120   11.2586 O.2     1  UNL1       -0.2525
      4 N          62.7496   85.8644    9.1349 N.am    1  UNL1       -0.2863
      5 H          64.2718   83.5987    9.6533 H       1  UNL1        0.1564
      6 H          63.4644   85.7637    8.4655 H       1  UNL1        0.1512
      7 C          61.8013   87.0236    9.0510 C.3     1  UNL1        0.1021
      8 C          60.7873   87.0847    7.9473 C.3     1  UNL1        0.0642
      9 C          59.8391   88.2439    7.8634 C.3     1  UNL1        0.1353
     10 C          58.7348   89.1284    7.3651 C.3     1  UNL1        0.0437
     11 C          59.3898   87.4530    6.6706 C.3     1  UNL1        0.0437
     12 O          59.9048   89.3420    8.8831 O.3     1  UNL1       -0.4805
     13 C          60.9187   89.2809    9.9868 C.ar    1  UNL1        0.1631
     14 C          60.9845   90.3789   11.0065 C.ar    1  UNL1        0.1758
     15 F          60.0362   91.5382   10.9226 F       1  UNL1       -0.2009
     16 C          61.9984   90.3178   12.1102 C.ar    1  UNL1        0.0624
     17 C          62.9467   89.1586   12.1942 C.ar    1  UNL1        0.1423
     18 F          63.9607   89.0975   13.2978 F       1  UNL1       -0.2041
     19 C          62.8810   88.0606   11.1744 C.ar    1  UNL1        0.0301
     20 C          61.8670   88.1217   10.0707 C.ar    1  UNL1        0.0341
     21 C          64.6544   86.3441   14.9108 C.3     1  UNL1        0.0521
     22 C          64.2744   84.9286   14.5917 C.ar    1  UNL1        0.0594
     23 C          64.0352   84.5189   13.1687 C.ar    1  UNL1        0.0160
     24 C          63.6552   83.1033   12.8496 C.ar    1  UNL1        0.0162
     25 C          63.4161   82.6936   11.4266 C.ar    1  UNL1        0.0516
     26 C          63.0360   81.2781   11.1074 C.ar    1  UNL1        0.0147
     27 C          62.8951   80.2723   12.2114 C.ar    1  UNL1        0.0013
     28 C          63.1342   80.6820   13.6343 C.ar    1  UNL1        0.0016
     29 C          63.5143   82.0976   13.9535 C.ar    1  UNL1        0.0204
     30 C          63.7534   82.5073   15.3764 C.ar    1  UNL1        0.0984
     31 N          64.1335   83.9228   15.6955 N.ar    1  UNL1       -0.2481
@<TRIPOS>BOND
     1    21    22    1
     2    22    23   ar
     3    23    24   ar
     4    24    25   ar
     5    25     1    1
     6     1     2   am
     7     2     3    2
     8     2     4   am
     9     7     4    1
    10     7     8    1
    11     8     9    1
    12     9    10    1
    13     9    11    1
    14     9    12    1
    15    12    13    1
    16    13    14   ar
    17    14    15    1
    18    14    16   ar
    19    16    17   ar
    20    17    18    1
    21    17    19   ar
    22    19    20   ar
    23    25    26   ar
    24    26    27   ar
    25    27    28   ar
    26    28    29   ar
    27    29    30   ar
    28    30    31   ar
    29    31    22   ar
    30    29    24   ar
    31    20     7    1
    32    20    13   ar
    33     1     5    1
    34     4     6    1
@<TRIPOS>MOLECULE
*****
 31 34 0 0 0
SMALL
GASTEIGER

@<TRIPOS>ATOM
      1 N          63.3214   89.7845   13.4364 N.am    1  UNL1       -0.2683
      2 C          63.5954   88.3109   13.4974 C.2     1  UNL1        0.3047
      3 O          64.5850   87.7725   14.4878 O.2     1  UNL1       -0.2525
      4 N          62.8798   87.3759   12.5682 N.am    1  UNL1       -0.2863
      5 H          62.6719   90.1379   12.7864 H       1  UNL1        0.1564
      6 H          62.2302   87.7293   11.9182 H       1  UNL1        0.1512
      7 C          63.1537   85.9024   12.6293 C.3     1  UNL1        0.1021
      8 C          63.3961   85.2388   13.9525 C.3     1  UNL1        0.0642
      9 C          63.6701   83.7653   14.0136 C.3     1  UNL1        0.1353
     10 C          63.9692   82.4096   14.5815 C.3     1  UNL1        0.0437
     11 C          63.7424   84.1044   15.4730 C.3     1  UNL1        0.0437
     12 O          63.7017   82.9554   12.7514 O.3     1  UNL1       -0.4805
     13 C          63.4593   83.6190   11.4282 C.ar    1  UNL1        0.1631
     14 C          63.4909   82.8091   10.1661 C.ar    1  UNL1        0.1758
     15 F          63.7649   81.3355   10.2271 F       1  UNL1       -0.2009
     16 C          63.2485   83.4726    8.8429 C.ar    1  UNL1        0.0624
     17 C          62.9745   84.9461    8.7818 C.ar    1  UNL1        0.1423
     18 F          62.7321   85.6097    7.4585 F       1  UNL1       -0.2041
     19 C          62.9429   85.7560   10.0439 C.ar    1  UNL1        0.0301
     20 C          63.1853   85.0924   11.3671 C.ar    1  UNL1        0.0341
     21 C          66.7036   92.6662   10.3531 C.3     1  UNL1        0.0521
     22 C          66.3948   92.6471   11.8209 C.ar    1  UNL1        0.0594
     23 C          65.3703   91.6929   12.3594 C.ar    1  UNL1        0.0160
     24 C          65.0616   91.6738   13.8271 C.ar    1  UNL1        0.0162
     25 C          64.0371   90.7195   14.3656 C.ar    1  UNL1        0.0516
     26 C          63.7283   90.7004   15.8334 C.ar    1  UNL1        0.0147
     27 C          64.4440   91.6355   16.7626 C.ar    1  UNL1        0.0013
     28 C          65.4684   92.5896   16.2241 C.ar    1  UNL1        0.0016
     29 C          65.7772   92.6088   14.7563 C.ar    1  UNL1        0.0204
     30 C          66.8016   93.5630   14.2178 C.ar    1  UNL1        0.0984
     31 N          67.1104   93.5821   12.7501 N.ar    1  UNL1       -0.2481
@<TRIPOS>BOND
     1    21    22    1
     2    22    23   ar
     3    23    24   ar
     4    24    25   ar
     5    25     1    1
     6     1     2   am
     7     2     3    2
     8     2     4   am
     9     7     4    1
    10     7     8    1
    11     8     9    1
    12     9    10    1
    13     9    11    1
    14     9    12    1
    15    12    13    1
    16    13    14   ar
    17    14    15    1
    18    14    16   ar
    19    16    17   ar
    20    17    18    1
    21    17    19   ar
    22    19    20   ar
    23    25    26   ar
    24    26    27   ar
    25    27    28   ar
    26    28    29   ar
    27    29    30   ar
    28    30    31   ar
    29    31    22   ar
    30    29    24   ar
    31    20     7    1
    32    20    13   ar
    33     1     5    1
    34     4     6    1
@<TRIPOS>MOLECULE
*****
 31 34 0 0 0
SMALL
GASTEIGER

@<TRIPOS>ATOM
      1 N          61.4318   90.1319   11.3557 N.am    1  UNL1       -0.2683
      2 C          62.8479   90.6264   11.3396 C.2     1  UNL1        0.3047
      3 O          63.7836   90.1866   10.2528 O.2     1  UNL1       -0.2525
      4 N          63.3283   91.5607   12.4102 N.am    1  UNL1       -0.2863
      5 H          60.8177   90.4206   12.0690 H       1  UNL1        0.1564
      6 H          62.7142   91.8494   13.1235 H       1  UNL1        0.1512
      7 C          64.7443   92.0552   12.3941 C.3     1  UNL1        0.1021
      8 C          65.4312   92.3207   11.0873 C.3     1  UNL1        0.0642
      9 C          66.8473   92.8152   11.0711 C.3     1  UNL1        0.1353
     10 C          68.1695   93.2871   10.5430 C.3     1  UNL1        0.0437
     11 C          66.5773   92.7501    9.5970 C.3     1  UNL1        0.0437
     12 O          67.5765   93.0442   12.3618 O.3     1  UNL1       -0.4805
     13 C          66.8896   92.7787   13.6686 C.ar    1  UNL1        0.1631
     14 C          67.6188   93.0077   14.9593 C.ar    1  UNL1        0.1758
     15 F          69.0349   93.5022   14.9432 F       1  UNL1       -0.2009
     16 C          66.9319   92.7423   16.2661 C.ar    1  UNL1        0.0624
     17 C          65.5159   92.2478   16.2822 C.ar    1  UNL1        0.1423
     18 F          64.8290   91.9823   17.5890 F       1  UNL1       -0.2041
     19 C          64.7867   92.0188   14.9916 C.ar    1  UNL1        0.0301
     20 C          65.4736   92.2843   13.6848 C.ar    1  UNL1        0.0341
     21 C          63.3006   85.2350   12.6893 C.3     1  UNL1        0.0521
     22 C          62.4731   85.7585   11.5529 C.ar    1  UNL1        0.0594
     23 C          62.1260   87.2162   11.4872 C.ar    1  UNL1        0.0160
     24 C          61.2986   87.7397   10.3508 C.ar    1  UNL1        0.0162
     25 C          60.9515   89.1976   10.2851 C.ar    1  UNL1        0.0516
     26 C          60.1240   89.7210    9.1487 C.ar    1  UNL1        0.0147
     27 C          59.6437   88.7866    8.0781 C.ar    1  UNL1        0.0013
     28 C          59.9908   87.3288    8.1438 C.ar    1  UNL1        0.0016
     29 C          60.8182   86.8054    9.2802 C.ar    1  UNL1        0.0204
     30 C          61.1653   85.3476    9.3460 C.ar    1  UNL1        0.0984
     31 N          61.9928   84.8242   10.4823 N.ar    1  UNL1       -0.2481
@<TRIPOS>BOND
     1    21    22    1
     2    22    23   ar
     3    23    24   ar
     4    24    25   ar
     5    25     1    1
     6     1     2   am
     7     2     3    2
     8     2     4   am
     9     7     4    1
    10     7     8    1
    11     8     9    1
    12     9    10    1
    13     9    11    1
    14     9    12    1
    15    12    13    1
    16    13    14   ar
    17    14    15    1
    18    14    16   ar
    19    16    17   ar
    20    17    18    1
    21    17    19   ar
    22    19    20   ar
    23    25    26   ar
    24    26    27   ar
    25    27    28   ar
    26    28    29   ar
    27    29    30   ar
    28    30    31   ar
    29    31    22   ar
    30    29    24   ar
    31    20     7    1
    32    20    13   ar
    33     1     5    1
    34     4     6    1
@<TRIPOS>MOLECULE
*****
 31 34 0 0 0
SMALL
GASTEIGER

@<TRIPOS>ATOM
      1 N          63.0332   86.7131   15.1655 N.am    1  UNL1       -0.2683
      2 C          63.7794   87.8804   14.5903 C.2     1  UNL1        0.3047
      3 O          64.8774   87.6514   13.5943 O.2     1  UNL1       -0.2525
      4 N          63.4276   89.2764   15.0112 N.am    1  UNL1       -0.2863
      5 H          62.3125   86.8633   15.8192 H       1  UNL1        0.1564
      6 H          62.7070   89.4267   15.6649 H       1  UNL1        0.1512
      7 C          64.1738   90.4436   14.4360 C.3     1  UNL1        0.1021
      8 C          65.1145   91.2313   15.2989 C.3     1  UNL1        0.0642
      9 C          65.8607   92.3986   14.7237 C.3     1  UNL1        0.1353
     10 C          66.7861   93.5759   14.6376 C.3     1  UNL1        0.0437
     11 C          66.3765   92.4280   16.1319 C.3     1  UNL1        0.0437
     12 O          65.6663   92.7780   13.2856 O.3     1  UNL1       -0.4805
     13 C          64.7256   91.9902   12.4227 C.ar    1  UNL1        0.1631
     14 C          64.5312   92.3697   10.9846 C.ar    1  UNL1        0.1758
     15 F          65.2774   93.5369   10.4093 F       1  UNL1       -0.2009
     16 C          63.5905   91.5819   10.1216 C.ar    1  UNL1        0.0624
     17 C          62.8443   90.4148   10.6968 C.ar    1  UNL1        0.1423
     18 F          61.9036   89.6270    9.8339 F       1  UNL1       -0.2041
     19 C          63.0387   90.0354   12.1349 C.ar    1  UNL1        0.0301
     20 C          63.9794   90.8231   12.9978 C.ar    1  UNL1        0.0341
     21 C          61.8241   86.3829    9.9044 C.3     1  UNL1        0.0521
     22 C          62.3902   85.4183   10.9040 C.ar    1  UNL1        0.0594
     23 C          62.6045   85.8499   12.3245 C.ar    1  UNL1        0.0160
     24 C          63.1706   84.8854   13.3241 C.ar    1  UNL1        0.0162
     25 C          63.3849   85.3170   14.7447 C.ar    1  UNL1        0.0516
     26 C          63.9510   84.3525   15.7443 C.ar    1  UNL1        0.0147
     27 C          64.3028   82.9563   15.3234 C.ar    1  UNL1        0.0013
     28 C          64.0885   82.5248   13.9029 C.ar    1  UNL1        0.0016
     29 C          63.5224   83.4893   12.9033 C.ar    1  UNL1        0.0204
     30 C          63.3081   83.0577   11.4828 C.ar    1  UNL1        0.0984
     31 N          62.7420   84.0223   10.4832 N.ar    1  UNL1       -0.2481
@<TRIPOS>BOND
     1    21    22    1
     2    22    23   ar
     3    23    24   ar
     4    24    25   ar
     5    25     1    1
     6     1     2   am
     7     2     3    2
     8     2     4   am
     9     7     4    1
    10     7     8    1
    11     8     9    1
    12     9    10    1
    13     9    11    1
    14     9    12    1
    15    12    13    1
    16    13    14   ar
    17    14    15    1
    18    14    16   ar
    19    16    17   ar
    20    17    18    1
    21    17    19   ar
    22    19    20   ar
    23    25    26   ar
    24    26    27   ar
    25    27    28   ar
    26    28    29   ar
    27    29    30   ar
    28    30    31   ar
    29    31    22   ar
    30    29    24   ar
    31    20     7    1
    32    20    13   ar
    33     1     5    1
    34     4     6    1
@<TRIPOS>MOLECULE
*****
 31 34 0 0 0
SMALL
GASTEIGER

@<TRIPOS>ATOM
      1 N          62.9679   89.5953   13.1699 N.am    1  UNL1       -0.2683
      2 C          63.3056   88.1393   13.0429 C.2     1  UNL1        0.3047
      3 O          64.3951   87.5457   13.8859 O.2     1  UNL1       -0.2525
      4 N          62.5537   87.2769   12.0730 N.am    1  UNL1       -0.2863
      5 H          62.2529   89.9849   12.6166 H       1  UNL1        0.1564
      6 H          61.8386   87.6664   11.5196 H       1  UNL1        0.1512
      7 C          62.8913   85.8209   11.9460 C.3     1  UNL1        0.1021
      8 C          63.2266   85.2431   10.6030 C.3     1  UNL1        0.0642
      9 C          63.5642   83.7870   10.4761 C.3     1  UNL1        0.1353
     10 C          63.9472   82.4782    9.8514 C.3     1  UNL1        0.0437
     11 C          63.6948   84.2106    9.0430 C.3     1  UNL1        0.0437
     12 O          63.5666   82.9089   11.6922 O.3     1  UNL1       -0.4805
     13 C          63.2313   83.4868   13.0352 C.ar    1  UNL1        0.1631
     14 C          63.2337   82.6087   14.2512 C.ar    1  UNL1        0.1758
     15 F          63.5713   81.1526   14.1243 F       1  UNL1       -0.2009
     16 C          62.8984   83.1865   15.5943 C.ar    1  UNL1        0.0624
     17 C          62.5608   84.6425   15.7212 C.ar    1  UNL1        0.1423
     18 F          62.2255   85.2203   17.0642 F       1  UNL1       -0.2041
     19 C          62.5584   85.5206   14.5051 C.ar    1  UNL1        0.0301
     20 C          62.8937   84.9427   13.1621 C.ar    1  UNL1        0.0341
     21 C          66.2010   92.7411   10.1864 C.3     1  UNL1        0.0521
     22 C          65.9567   92.6015   11.6598 C.ar    1  UNL1        0.0594
     23 C          64.9605   91.5994   12.1631 C.ar    1  UNL1        0.0160
     24 C          64.7161   91.4598   13.6365 C.ar    1  UNL1        0.0162
     25 C          63.7198   90.4577   14.1399 C.ar    1  UNL1        0.0516
     26 C          63.4755   90.3181   15.6133 C.ar    1  UNL1        0.0147
     27 C          64.2274   91.1806   16.5832 C.ar    1  UNL1        0.0013
     28 C          65.2236   92.1826   16.0798 C.ar    1  UNL1        0.0016
     29 C          65.4680   92.3222   14.6065 C.ar    1  UNL1        0.0204
     30 C          66.4642   93.3242   14.1031 C.ar    1  UNL1        0.0984
     31 N          66.7085   93.4639   12.6297 N.ar    1  UNL1       -0.2481
@<TRIPOS>BOND
     1    21    22    1
     2    22    23   ar
     3    23    24   ar
     4    24    25   ar
     5    25     1    1
     6     1     2   am
     7     2     3    2
     8     2     4   am
     9     7     4    1
    10     7     8    1
    11     8     9    1
    12     9    10    1
    13     9    11    1
    14     9    12    1
    15    12    13    1
    16    13    14   ar
    17    14    15    1
    18    14    16   ar
    19    16    17   ar
    20    17    18    1
    21    17    19   ar
    22    19    20   ar
    23    25    26   ar
    24    26    27   ar
    25    27    28   ar
    26    28    29   ar
    27    29    30   ar
    28    30    31   ar
    29    31    22   ar
    30    29    24   ar
    31    20     7    1
    32    20    13   ar
    33     1     5    1
    34     4     6    1
@<TRIPOS>MOLECULE
*****
 31 34 0 0 0
SMALL
GASTEIGER

@<TRIPOS>ATOM
      1 N          62.6891   90.2052   13.6829 N.am    1  UNL1       -0.2683
      2 C          63.0903   88.9077   13.0459 C.2     1  UNL1        0.3047
      3 O          64.4722   88.3641   13.2573 O.2     1  UNL1       -0.2525
      4 N          62.1094   88.1538   12.1977 N.am    1  UNL1       -0.2863
      5 H          61.7820   90.5619   13.5441 H       1  UNL1        0.1564
      6 H          61.2024   88.5105   12.0589 H       1  UNL1        0.1512
      7 C          62.5106   86.8563   11.5608 C.3     1  UNL1        0.1021
      8 C          62.3216   86.6545   10.0865 C.3     1  UNL1        0.0642
      9 C          62.7228   85.3570    9.4496 C.3     1  UNL1        0.1353
     10 C          62.9459   84.3143    8.3946 C.3     1  UNL1        0.0437
     11 C          62.2101   86.0905    8.2458 C.3     1  UNL1        0.0437
     12 O          63.3130   84.2614   10.2870 O.3     1  UNL1       -0.4805
     13 C          63.5020   84.4632   11.7613 C.ar    1  UNL1        0.1631
     14 C          64.0922   83.3676   12.5987 C.ar    1  UNL1        0.1758
     15 F          64.4934   82.0701   11.9618 F       1  UNL1       -0.2009
     16 C          64.2812   83.5695   14.0730 C.ar    1  UNL1        0.0624
     17 C          63.8800   84.8669   14.7099 C.ar    1  UNL1        0.1423
     18 F          64.0691   85.0687   16.1842 F       1  UNL1       -0.2041
     19 C          63.2899   85.9625   13.8725 C.ar    1  UNL1        0.0301
     20 C          63.1009   85.7606   12.3982 C.ar    1  UNL1        0.0341
     21 C          65.9712   92.7867   10.2458 C.3     1  UNL1        0.0521
     22 C          65.8863   92.7068   11.7413 C.ar    1  UNL1        0.0594
     23 C          64.8206   91.8729   12.3885 C.ar    1  UNL1        0.0160
     24 C          64.7357   91.7930   13.8839 C.ar    1  UNL1        0.0162
     25 C          63.6699   90.9591   14.5311 C.ar    1  UNL1        0.0516
     26 C          63.5850   90.8791   16.0266 C.ar    1  UNL1        0.0147
     27 C          64.5659   91.6331   16.8749 C.ar    1  UNL1        0.0013
     28 C          65.6316   92.4670   16.2276 C.ar    1  UNL1        0.0016
     29 C          65.7165   92.5469   14.7322 C.ar    1  UNL1        0.0204
     30 C          66.7822   93.3807   14.0850 C.ar    1  UNL1        0.0984
     31 N          66.8671   93.4607   12.5895 N.ar    1  UNL1       -0.2481
@<TRIPOS>BOND
     1    21    22    1
     2    22    23   ar
     3    23    24   ar
     4    24    25   ar
     5    25     1    1
     6     1     2   am
     7     2     3    2
     8     2     4   am
     9     7     4    1
    10     7     8    1
    11     8     9    1
    12     9    10    1
    13     9    11    1
    14     9    12    1
    15    12    13    1
    16    13    14   ar
    17    14    15    1
    18    14    16   ar
    19    16    17   ar
    20    17    18    1
    21    17    19   ar
    22    19    20   ar
    23    25    26   ar
    24    26    27   ar
    25    27    28   ar
    26    28    29   ar
    27    29    30   ar
    28    30    31   ar
    29    31    22   ar
    30    29    24   ar
    31    20     7    1
    32    20    13   ar
    33     1     5    1
    34     4     6    1
@<TRIPOS>MOLECULE
*****
 31 34 0 0 0
SMALL
GASTEIGER

@<TRIPOS>ATOM
      1 N          62.3874   86.9185   11.4105 N.am    1  UNL1       -0.2683
      2 C          63.1074   87.8375   12.3526 C.2     1  UNL1        0.3047
      3 O          64.2418   87.3189   13.1857 O.2     1  UNL1       -0.2525
      4 N          62.6928   89.2749   12.4614 N.am    1  UNL1       -0.2863
      5 H          61.6428   87.2589   10.8637 H       1  UNL1        0.1564
      6 H          61.9483   89.6153   11.9146 H       1  UNL1        0.1512
      7 C          63.4128   90.1937   13.4034 C.3     1  UNL1        0.1021
      8 C          63.2347   90.0390   14.8847 C.3     1  UNL1        0.0642
      9 C          63.9547   90.9579   15.8267 C.3     1  UNL1        0.1353
     10 C          64.4187   91.5787   17.1110 C.3     1  UNL1        0.0437
     11 C          63.2179   90.0998   16.8121 C.3     1  UNL1        0.0437
     12 O          64.8527   92.0315   15.2874 O.3     1  UNL1       -0.4805
     13 C          65.0307   92.1863   13.8061 C.ar    1  UNL1        0.1631
     14 C          65.9287   93.2599   13.2667 C.ar    1  UNL1        0.1758
     15 F          66.6486   94.1789   14.2087 F       1  UNL1       -0.2009
     16 C          66.1067   93.4147   11.7854 C.ar    1  UNL1        0.0624
     17 C          65.3868   92.4959   10.8434 C.ar    1  UNL1        0.1423
     18 F          65.5648   92.6507    9.3621 F       1  UNL1       -0.2041
     19 C          64.4888   91.4222   11.3827 C.ar    1  UNL1        0.0301
     20 C          64.3108   91.2675   12.8641 C.ar    1  UNL1        0.0341
     21 C          62.3012   84.9471   16.4460 C.3     1  UNL1        0.0521
     22 C          62.6337   84.3619   15.1055 C.ar    1  UNL1        0.0594
     23 C          62.5516   85.2141   13.8739 C.ar    1  UNL1        0.0160
     24 C          62.8840   84.6288   12.5333 C.ar    1  UNL1        0.0162
     25 C          62.8020   85.4811   11.3017 C.ar    1  UNL1        0.0516
     26 C          63.1344   84.8959    9.9612 C.ar    1  UNL1        0.0147
     27 C          63.5490   83.4583    9.8523 C.ar    1  UNL1        0.0013
     28 C          63.6310   82.6061   11.0840 C.ar    1  UNL1        0.0016
     29 C          63.2986   83.1914   12.4245 C.ar    1  UNL1        0.0204
     30 C          63.3807   82.3392   13.6561 C.ar    1  UNL1        0.0984
     31 N          63.0482   82.9244   14.9966 N.ar    1  UNL1       -0.2481
@<TRIPOS>BOND
     1    21    22    1
     2    22    23   ar
     3    23    24   ar
     4    24    25   ar
     5    25     1    1
     6     1     2   am
     7     2     3    2
     8     2     4   am
     9     7     4    1
    10     7     8    1
    11     8     9    1
    12     9    10    1
    13     9    11    1
    14     9    12    1
    15    12    13    1
    16    13    14   ar
    17    14    15    1
    18    14    16   ar
    19    16    17   ar
    20    17    18    1
    21    17    19   ar
    22    19    20   ar
    23    25    26   ar
    24    26    27   ar
    25    27    28   ar
    26    28    29   ar
    27    29    30   ar
    28    30    31   ar
    29    31    22   ar
    30    29    24   ar
    31    20     7    1
    32    20    13   ar
    33     1     5    1
    34     4     6    1
