@<TRIPOS>MOLECULE
*****
 32 36 0 0 0
SMALL
GASTEIGER

@<TRIPOS>ATOM
      1 C          62.1610   86.5395   11.3790 C.3     1  UNL1        0.1066
      2 C          61.7898   85.6807   10.2065 C.3     1  UNL1        0.0470
      3 C          61.0511   86.5365    9.2206 C.ar    1  UNL1       -0.0106
      4 C          60.4451   86.2314    7.8828 C.ar    1  UNL1        0.0544
      5 CL         60.5305   84.8437    7.3196 Cl      1  UNL1       -0.0826
      6 C          59.7539   87.3140    7.1081 C.ar    1  UNL1        0.0224
      7 C          59.6685   88.7016    7.6713 C.ar    1  UNL1        0.0583
      8 CL         58.9772   89.7842    6.8966 Cl      1  UNL1       -0.0822
      9 C          60.2745   89.0067    9.0091 C.ar    1  UNL1        0.0104
     10 C          60.9658   87.9241    9.7837 C.ar    1  UNL1        0.0163
     11 C          61.6517   87.9259   11.1177 C.3     1  UNL1        0.2026
     12 N          63.5606   82.7652   14.6647 N.3     1  UNL1       -0.3211
     13 C          63.6098   84.2035   14.2415 C.3     1  UNL1        0.0670
     14 C          64.4079   85.1927   15.0379 C.3     1  UNL1        0.0183
     15 C          64.4571   86.6309   14.6147 C.3     1  UNL1        0.0187
     16 C          63.7081   87.0798   13.3950 C.3     1  UNL1        0.0723
     17 N          62.9100   86.0906   12.5986 N.3     1  UNL1       -0.2692
     18 C          62.8608   84.6524   13.0219 C.3     1  UNL1        0.0878
     19 H          64.1221   82.6392   15.5069 H       1  UNL1        0.1189
     20 H          63.9316   82.1781   13.9177 H       1  UNL1        0.1189
     21 O          61.8020   89.1070   12.0301 O.3     1  UNL1       -0.4734
     22 C          62.7974   90.1818   11.7080 C.ar    1  UNL1        0.1390
     23 C          63.7465   90.6660   12.7640 C.ar    1  UNL1        0.0385
     24 C          64.7420   91.7408   12.4419 C.ar    1  UNL1        0.0223
     25 C          64.7884   92.3315   11.0639 C.ar    1  UNL1        0.0848
     26 C          63.8393   91.8474   10.0080 C.ar    1  UNL1        0.0223
     27 C          62.8439   90.7726   10.3301 C.ar    1  UNL1        0.0385
     28 N          65.7838   93.4064   10.7418 N.ar    1  UNL1       -0.2079
     29 C          67.1151   93.2057   10.0804 C.ar    1  UNL1        0.2016
     30 N          67.7769   94.5459    9.9545 N.ar    1  UNL1       -0.2004
     31 C          66.8546   95.5749   10.5380 C.ar    1  UNL1        0.2214
     32 N          65.6228   94.8707   11.0246 N.ar    1  UNL1       -0.1409
@<TRIPOS>BOND
     1    13    12    1
     2    13    14    1
     3    14    15    1
     4    15    16    1
     5    16    17    1
     6     1    17    1
     7     1     2    1
     8     2     3    1
     9     3     4   ar
    10     4     5    1
    11     4     6   ar
    12     6     7   ar
    13     7     8    1
    14     7     9   ar
    15     9    10   ar
    16    10    11    1
    17    11    21    1
    18    21    22    1
    19    22    23   ar
    20    23    24   ar
    21    24    25   ar
    22    25    28    1
    23    28    29   ar
    24    29    30   ar
    25    30    31   ar
    26    31    32   ar
    27    25    26   ar
    28    26    27   ar
    29    17    18    1
    30    18    13    1
    31    11     1    1
    32    27    22   ar
    33    10     3   ar
    34    32    28   ar
    35    12    19    1
    36    12    20    1
@<TRIPOS>MOLECULE
*****
 32 36 0 0 0
SMALL
GASTEIGER

@<TRIPOS>ATOM
      1 C          64.4217   89.4607   14.6163 C.3     1  UNL1        0.1066
      2 C          65.7463   90.1494   14.7610 C.3     1  UNL1        0.0470
      3 C          65.8274   91.2226   13.7163 C.ar    1  UNL1       -0.0106
      4 C          66.8971   92.2197   13.3826 C.ar    1  UNL1        0.0544
      5 CL         68.1717   92.2451   14.1730 Cl      1  UNL1       -0.0826
      6 C          66.6923   93.1915   12.2585 C.ar    1  UNL1        0.0224
      7 C          65.4177   93.1662   11.4681 C.ar    1  UNL1        0.0583
      8 CL         65.2128   94.1380   10.3439 Cl      1  UNL1       -0.0822
      9 C          64.3479   92.1691   11.8018 C.ar    1  UNL1        0.0104
     10 C          64.5528   91.1973   12.9259 C.ar    1  UNL1        0.0163
     11 C          63.6840   90.1083   13.4821 C.3     1  UNL1        0.2026
     12 N          64.0598   84.3583   15.5302 N.3     1  UNL1       -0.3211
     13 C          63.7414   85.7728   15.9150 C.3     1  UNL1        0.0670
     14 C          62.9236   86.0504   17.1414 C.3     1  UNL1        0.0183
     15 C          62.6052   87.4648   17.5261 C.3     1  UNL1        0.0187
     16 C          63.1045   88.6015   16.6844 C.3     1  UNL1        0.0723
     17 N          63.9223   88.3239   15.4580 N.3     1  UNL1       -0.2692
     18 C          64.2407   86.9095   15.0733 C.3     1  UNL1        0.0878
     19 H          63.6445   83.7197   16.2085 H       1  UNL1        0.1189
     20 H          65.0715   84.2291   15.5168 H       1  UNL1        0.1189
     21 O          62.3175   89.7330   12.9905 O.3     1  UNL1       -0.4734
     22 C          62.1698   88.8097   11.8177 C.ar    1  UNL1        0.1390
     23 C          62.5284   87.3596   11.9549 C.ar    1  UNL1        0.0385
     24 C          62.3807   86.4362   10.7821 C.ar    1  UNL1        0.0223
     25 C          61.8743   86.9628    9.4720 C.ar    1  UNL1        0.0848
     26 C          61.5157   88.4128    9.3348 C.ar    1  UNL1        0.0223
     27 C          61.6634   89.3362   10.5076 C.ar    1  UNL1        0.0385
     28 N          61.7266   86.0394    8.2992 N.ar    1  UNL1       -0.2079
     29 C          60.4601   85.7727    7.5411 C.ar    1  UNL1        0.2016
     30 N          60.7702   84.7890    6.4519 N.ar    1  UNL1       -0.2004
     31 C          62.2284   84.4478    6.5370 C.ar    1  UNL1        0.2214
     32 N          62.8195   85.2205    7.6786 N.ar    1  UNL1       -0.1409
@<TRIPOS>BOND
     1    13    12    1
     2    13    14    1
     3    14    15    1
     4    15    16    1
     5    16    17    1
     6     1    17    1
     7     1     2    1
     8     2     3    1
     9     3     4   ar
    10     4     5    1
    11     4     6   ar
    12     6     7   ar
    13     7     8    1
    14     7     9   ar
    15     9    10   ar
    16    10    11    1
    17    11    21    1
    18    21    22    1
    19    22    23   ar
    20    23    24   ar
    21    24    25   ar
    22    25    28    1
    23    28    29   ar
    24    29    30   ar
    25    30    31   ar
    26    31    32   ar
    27    25    26   ar
    28    26    27   ar
    29    17    18    1
    30    18    13    1
    31    11     1    1
    32    27    22   ar
    33    10     3   ar
    34    32    28   ar
    35    12    19    1
    36    12    20    1
@<TRIPOS>MOLECULE
*****
 32 36 0 0 0
SMALL
GASTEIGER

@<TRIPOS>ATOM
      1 C          62.1478   86.4782   11.4897 C.3     1  UNL1        0.1066
      2 C          62.0579   85.6625   10.2340 C.3     1  UNL1        0.0470
      3 C          61.2822   86.4530    9.2223 C.ar    1  UNL1       -0.0106
      4 C          60.8802   86.1537    7.8085 C.ar    1  UNL1        0.0544
      5 CL         61.2698   84.8495    7.1781 Cl      1  UNL1       -0.0826
      6 C          60.0888   87.1586    7.0251 C.ar    1  UNL1        0.0224
      7 C          59.6993   88.4627    7.6555 C.ar    1  UNL1        0.0583
      8 CL         58.9077   89.4676    6.8721 Cl      1  UNL1       -0.0822
      9 C          60.1012   88.7620    9.0693 C.ar    1  UNL1        0.0104
     10 C          60.8927   87.7571    9.8527 C.ar    1  UNL1        0.0163
     11 C          61.4276   87.7727   11.2540 C.3     1  UNL1        0.2026
     12 N          62.8275   83.0599   15.3437 N.3     1  UNL1       -0.3211
     13 C          63.1767   84.3617   14.6852 C.3     1  UNL1        0.0670
     14 C          64.2149   85.2560   15.2954 C.3     1  UNL1        0.0183
     15 C          64.5640   86.5577   14.6369 C.3     1  UNL1        0.0187
     16 C          63.8750   86.9651   13.3684 C.3     1  UNL1        0.0723
     17 N          62.8368   86.0708   12.7582 N.3     1  UNL1       -0.2692
     18 C          62.4877   84.7691   13.4167 C.3     1  UNL1        0.0878
     19 H          63.3877   82.9451   16.1883 H       1  UNL1        0.1189
     20 H          63.0198   82.2915   14.7011 H       1  UNL1        0.1189
     21 O          61.2701   88.8872   12.2455 O.3     1  UNL1       -0.4734
     22 C          62.4665   89.6827   12.6762 C.ar    1  UNL1        0.1390
     23 C          63.2948   90.4041   11.6546 C.ar    1  UNL1        0.0385
     24 C          64.4913   91.1997   12.0852 C.ar    1  UNL1        0.0223
     25 C          64.8596   91.2738   13.5375 C.ar    1  UNL1        0.0848
     26 C          64.0314   90.5523   14.5590 C.ar    1  UNL1        0.0223
     27 C          62.8349   89.7568   14.1284 C.ar    1  UNL1        0.0385
     28 N          66.0561   92.0693   13.9681 N.ar    1  UNL1       -0.2079
     29 C          67.4497   91.9258   13.4321 C.ar    1  UNL1        0.2016
     30 N          68.3240   92.9158   14.1430 N.ar    1  UNL1       -0.2004
     31 C          67.4708   93.6712   15.1184 C.ar    1  UNL1        0.2214
     32 N          66.0691   93.1481   15.0103 N.ar    1  UNL1       -0.1409
@<TRIPOS>BOND
     1    13    12    1
     2    13    14    1
     3    14    15    1
     4    15    16    1
     5    16    17    1
     6     1    17    1
     7     1     2    1
     8     2     3    1
     9     3     4   ar
    10     4     5    1
    11     4     6   ar
    12     6     7   ar
    13     7     8    1
    14     7     9   ar
    15     9    10   ar
    16    10    11    1
    17    11    21    1
    18    21    22    1
    19    22    23   ar
    20    23    24   ar
    21    24    25   ar
    22    25    28    1
    23    28    29   ar
    24    29    30   ar
    25    30    31   ar
    26    31    32   ar
    27    25    26   ar
    28    26    27   ar
    29    17    18    1
    30    18    13    1
    31    11     1    1
    32    27    22   ar
    33    10     3   ar
    34    32    28   ar
    35    12    19    1
    36    12    20    1
@<TRIPOS>MOLECULE
*****
 32 36 0 0 0
SMALL
GASTEIGER

@<TRIPOS>ATOM
      1 C          62.4031   85.1664   10.5846 C.3     1  UNL1        0.1066
      2 C          63.1318   83.9527   11.0806 C.3     1  UNL1        0.0470
      3 C          63.5025   84.1884   12.5148 C.ar    1  UNL1       -0.0106
      4 C          64.2304   83.3409   13.5157 C.ar    1  UNL1        0.0544
      5 CL         64.7300   81.9815   13.1252 Cl      1  UNL1       -0.0826
      6 C          64.4587   83.8527   14.9070 C.ar    1  UNL1        0.0224
      7 C          63.9590   85.2120   15.2975 C.ar    1  UNL1        0.0583
      8 CL         64.1873   85.7238   16.6890 Cl      1  UNL1       -0.0822
      9 C          63.2311   86.0596   14.2967 C.ar    1  UNL1        0.0104
     10 C          63.0028   85.5478   12.9053 C.ar    1  UNL1        0.0163
     11 C          62.3234   86.1522   11.7124 C.3     1  UNL1        0.2026
     12 N          58.7434   87.0753    7.4282 N.3     1  UNL1       -0.3211
     13 C          60.0213   86.3147    7.6252 C.3     1  UNL1        0.0670
     14 C          60.7469   85.7480    6.4411 C.3     1  UNL1        0.0183
     15 C          62.0247   84.9874    6.6382 C.3     1  UNL1        0.0187
     16 C          62.5767   84.7936    8.0193 C.3     1  UNL1        0.0723
     17 N          61.8511   85.3603    9.2035 N.3     1  UNL1       -0.2692
     18 C          60.5733   86.1208    9.0064 C.3     1  UNL1        0.0878
     19 H          58.5181   87.1096    6.4340 H       1  UNL1        0.1189
     20 H          58.8543   88.0245    7.7847 H       1  UNL1        0.1189
     21 O          61.6776   87.5049   11.6570 O.3     1  UNL1       -0.4734
     22 C          62.5245   88.7424   11.6936 C.ar    1  UNL1        0.1390
     23 C          63.3434   89.0551   12.9109 C.ar    1  UNL1        0.0385
     24 C          64.1903   90.2926   12.9475 C.ar    1  UNL1        0.0223
     25 C          64.2183   91.2175   11.7669 C.ar    1  UNL1        0.0848
     26 C          63.3995   90.9047   10.5496 C.ar    1  UNL1        0.0223
     27 C          62.5526   89.6673   10.5130 C.ar    1  UNL1        0.0385
     28 N          65.0652   92.4549   11.8035 N.ar    1  UNL1       -0.2079
     29 C          65.8537   92.9492   12.9799 C.ar    1  UNL1        0.2016
     30 N          66.5481   94.2152   12.5737 N.ar    1  UNL1       -0.2004
     31 C          66.1888   94.5034   11.1462 C.ar    1  UNL1        0.2214
     32 N          65.2723   93.4155   10.6702 N.ar    1  UNL1       -0.1409
@<TRIPOS>BOND
     1    13    12    1
     2    13    14    1
     3    14    15    1
     4    15    16    1
     5    16    17    1
     6     1    17    1
     7     1     2    1
     8     2     3    1
     9     3     4   ar
    10     4     5    1
    11     4     6   ar
    12     6     7   ar
    13     7     8    1
    14     7     9   ar
    15     9    10   ar
    16    10    11    1
    17    11    21    1
    18    21    22    1
    19    22    23   ar
    20    23    24   ar
    21    24    25   ar
    22    25    28    1
    23    28    29   ar
    24    29    30   ar
    25    30    31   ar
    26    31    32   ar
    27    25    26   ar
    28    26    27   ar
    29    17    18    1
    30    18    13    1
    31    11     1    1
    32    27    22   ar
    33    10     3   ar
    34    32    28   ar
    35    12    19    1
    36    12    20    1
@<TRIPOS>MOLECULE
*****
 32 36 0 0 0
SMALL
GASTEIGER

@<TRIPOS>ATOM
      1 C          61.7066   85.9840   10.0237 C.3     1  UNL1        0.1066
      2 C          62.3930   84.6751    9.7677 C.3     1  UNL1        0.0470
      3 C          63.1338   84.2887   11.0135 C.ar    1  UNL1       -0.0106
      4 C          63.9869   83.1007   11.3461 C.ar    1  UNL1        0.0544
      5 CL         64.2155   82.0306   10.3201 Cl      1  UNL1       -0.0826
      6 C          64.6115   82.9827   12.7048 C.ar    1  UNL1        0.0224
      7 C          64.3829   84.0528   13.7307 C.ar    1  UNL1        0.0583
      8 CL         65.0076   83.9349   15.0894 Cl      1  UNL1       -0.0822
      9 C          63.5298   85.2409   13.3981 C.ar    1  UNL1        0.0104
     10 C          62.9052   85.3588   12.0394 C.ar    1  UNL1        0.0163
     11 C          62.0231   86.4065   11.4278 C.3     1  UNL1        0.2026
     12 N          59.6791   90.4626    8.3408 N.3     1  UNL1       -0.3211
     13 C          59.8396   88.9773    8.2058 C.3     1  UNL1        0.0670
     14 C          59.1470   88.2460    7.0942 C.3     1  UNL1        0.0183
     15 C          59.3075   86.7608    6.9592 C.3     1  UNL1        0.0187
     16 C          60.1607   86.0068    7.9357 C.3     1  UNL1        0.0723
     17 N          60.8534   86.7380    9.0472 N.3     1  UNL1       -0.2692
     18 C          60.6928   88.2233    9.1823 C.3     1  UNL1        0.0878
     19 H          59.0706   90.8077    7.5985 H       1  UNL1        0.1189
     20 H          60.5922   90.9112    8.2680 H       1  UNL1        0.1189
     21 O          61.5421   87.6573   12.1018 O.3     1  UNL1       -0.4734
     22 C          62.4725   88.8209   12.2757 C.ar    1  UNL1        0.1390
     23 C          62.4568   89.9481   11.2861 C.ar    1  UNL1        0.0385
     24 C          63.3871   91.1118   11.4599 C.ar    1  UNL1        0.0223
     25 C          64.3332   91.1483   12.6234 C.ar    1  UNL1        0.0848
     26 C          64.3489   90.0212   13.6129 C.ar    1  UNL1        0.0223
     27 C          63.4186   88.8574   13.4391 C.ar    1  UNL1        0.0385
     28 N          65.2636   92.3120   12.7973 N.ar    1  UNL1       -0.2079
     29 C          65.8151   93.1717   11.6988 C.ar    1  UNL1        0.2016
     30 N          66.6981   94.2113   12.3227 N.ar    1  UNL1       -0.2004
     31 C          66.6924   93.9942   13.8069 C.ar    1  UNL1        0.2214
     32 N          65.8058   92.8204   14.1002 N.ar    1  UNL1       -0.1409
@<TRIPOS>BOND
     1    13    12    1
     2    13    14    1
     3    14    15    1
     4    15    16    1
     5    16    17    1
     6     1    17    1
     7     1     2    1
     8     2     3    1
     9     3     4   ar
    10     4     5    1
    11     4     6   ar
    12     6     7   ar
    13     7     8    1
    14     7     9   ar
    15     9    10   ar
    16    10    11    1
    17    11    21    1
    18    21    22    1
    19    22    23   ar
    20    23    24   ar
    21    24    25   ar
    22    25    28    1
    23    28    29   ar
    24    29    30   ar
    25    30    31   ar
    26    31    32   ar
    27    25    26   ar
    28    26    27   ar
    29    17    18    1
    30    18    13    1
    31    11     1    1
    32    27    22   ar
    33    10     3   ar
    34    32    28   ar
    35    12    19    1
    36    12    20    1
