@<TRIPOS>MOLECULE
*****
 33 37 0 0 0
SMALL
GASTEIGER

@<TRIPOS>ATOM
      1 C          66.3595   93.1910   13.9816 C.ar    1  UNL1        0.1314
      2 N          66.9174   94.4401   13.3664 N.ar    1  UNL1       -0.2292
      3 C          66.5244   94.8296   11.9721 C.ar    1  UNL1        0.1018
      4 C          65.5736   93.9699   11.1931 C.ar    1  UNL1        0.0380
      5 C          65.0157   92.7208   11.8084 C.ar    1  UNL1        0.0658
      6 C          65.4087   92.3314   13.2026 C.ar    1  UNL1        0.0664
      7 C          64.7017   91.0531   13.5435 C.ar    1  UNL1        0.1056
      8 N          64.7065   90.2022   14.7787 N.ar    1  UNL1       -0.2223
      9 C          63.8812   88.9506   14.8304 C.ar    1  UNL1        0.2001
     10 N          63.0513   88.5500   13.6469 N.ar    1  UNL1       -0.2075
     11 C          63.0466   89.4010   12.4117 C.ar    1  UNL1        0.1509
     12 C          63.8718   90.6525   12.3600 C.ar    1  UNL1        0.1100
     13 N          64.0659   91.6833   11.2876 N.ar    1  UNL1       -0.3216
     14 C          63.4229   91.6774    9.9324 C.3     1  UNL1        0.1306
     15 N          62.2166   89.0004   11.2282 N.pl3   1  UNL1       -0.2892
     16 C          62.5702   87.7703   10.4461 C.3     1  UNL1        0.1095
     17 C          61.7401   87.3697    9.2625 C.3     1  UNL1        0.0939
     18 N          60.5567   88.1993    8.8612 N.3     1  UNL1       -0.2695
     19 C          60.2031   89.4295    9.6433 C.3     1  UNL1        0.0939
     20 C          61.0331   89.8300   10.8267 C.3     1  UNL1        0.1095
     21 C          59.7267   87.7987    7.6776 C.3     1  UNL1        0.0769
     22 C          58.6194   88.6915    7.2013 C.3     1  UNL1        0.0437
     23 C          58.9110   89.7923    6.2249 C.ar    1  UNL1       -0.0184
     24 C          57.8009   90.6746    5.7361 C.ar    1  UNL1       -0.0018
     25 C          58.0925   91.7754    4.7596 C.ar    1  UNL1        0.0316
     26 C          59.4942   91.9938    4.2722 C.ar    1  UNL1        0.1674
     27 F          59.7857   93.0946    3.2958 F       1  UNL1       -0.2018
     28 C          60.6043   91.1114    4.7611 C.ar    1  UNL1        0.1671
     29 F          62.0060   91.3298    4.2737 F       1  UNL1       -0.2018
     30 C          60.3127   90.0107    5.7375 C.ar    1  UNL1        0.0277
     31 C          67.9953   91.9941   15.6069 C.3     1  UNL1        0.1096
     32 N          66.7525   92.8016   15.3758 N.pl3   1  UNL1       -0.3166
     33 H          66.1948   93.0760   16.1393 H       1  UNL1        0.1482
@<TRIPOS>BOND
     1    31    32    1
     2    32     1    1
     3     1     2   ar
     4     2     3   ar
     5     3     4   ar
     6     4     5   ar
     7     5     6   ar
     8     6     7   ar
     9     7     8   ar
    10     8     9   ar
    11     9    10   ar
    12    10    11   ar
    13    11    15    1
    14    15    16    1
    15    16    17    1
    16    17    18    1
    17    18    21    1
    18    21    22    1
    19    22    23    1
    20    23    24   ar
    21    24    25   ar
    22    25    26   ar
    23    26    27    1
    24    26    28   ar
    25    28    29    1
    26    28    30   ar
    27    18    19    1
    28    19    20    1
    29    11    12   ar
    30    12    13   ar
    31    13    14    1
    32     6     1   ar
    33    12     7   ar
    34    13     5   ar
    35    20    15    1
    36    30    23   ar
    37    32    33    1
@<TRIPOS>MOLECULE
*****
 33 37 0 0 0
SMALL
GASTEIGER

@<TRIPOS>ATOM
      1 C          66.4720   93.8065   13.6848 C.ar    1  UNL1        0.1314
      2 N          67.1344   94.8274   12.8081 N.ar    1  UNL1       -0.2292
      3 C          66.7684   94.9201   11.3563 C.ar    1  UNL1        0.1018
      4 C          65.7400   93.9918   10.7814 C.ar    1  UNL1        0.0380
      5 C          65.0776   92.9708   11.6582 C.ar    1  UNL1        0.0658
      6 C          65.4436   92.8782   13.1099 C.ar    1  UNL1        0.0664
      7 C          64.6282   91.7792   13.7243 C.ar    1  UNL1        0.1056
      8 N          64.5655   91.2368   15.1213 N.ar    1  UNL1       -0.2223
      9 C          63.6329   90.1078   15.4464 C.ar    1  UNL1        0.2001
     10 N          62.7630   89.5212   14.3744 N.ar    1  UNL1       -0.2075
     11 C          62.8257   90.0636   12.9773 C.ar    1  UNL1        0.1509
     12 C          63.7583   91.1926   12.6523 C.ar    1  UNL1        0.1100
     13 N          64.0361   91.9290   11.3754 N.ar    1  UNL1       -0.3216
     14 C          63.3864   91.6694   10.0485 C.3     1  UNL1        0.1306
     15 N          61.9558   89.4770   11.9054 N.pl3   1  UNL1       -0.2892
     16 C          62.5764   88.9052   10.6653 C.3     1  UNL1        0.1095
     17 C          61.7064   88.3186    9.5933 C.3     1  UNL1        0.0939
     18 N          60.2159   88.3038    9.7614 N.3     1  UNL1       -0.2695
     19 C          59.5954   88.8757   11.0016 C.3     1  UNL1        0.0939
     20 C          60.4653   89.4622   12.0735 C.3     1  UNL1        0.1095
     21 C          59.3460   87.7172    8.6894 C.3     1  UNL1        0.0769
     22 C          59.7303   86.4226    8.0366 C.3     1  UNL1        0.0437
     23 C          60.9696   85.7002    8.4752 C.ar    1  UNL1       -0.0184
     24 C          61.9778   85.2548    7.4579 C.ar    1  UNL1       -0.0018
     25 C          63.2171   84.5324    7.8966 C.ar    1  UNL1        0.0316
     26 C          63.4481   84.2555    9.3526 C.ar    1  UNL1        0.1674
     27 F          64.6874   83.5332    9.7912 F       1  UNL1       -0.2018
     28 C          62.4399   84.7010   10.3699 C.ar    1  UNL1        0.1671
     29 F          62.6709   84.4242   11.8259 F       1  UNL1       -0.2018
     30 C          61.2007   85.4233    9.9312 C.ar    1  UNL1        0.0277
     31 C          68.2801   93.6482   15.5437 C.3     1  UNL1        0.1096
     32 N          66.8379   93.7139   15.1366 N.pl3   1  UNL1       -0.3166
     33 H          66.1316   93.6962   15.8221 H       1  UNL1        0.1482
@<TRIPOS>BOND
     1    31    32    1
     2    32     1    1
     3     1     2   ar
     4     2     3   ar
     5     3     4   ar
     6     4     5   ar
     7     5     6   ar
     8     6     7   ar
     9     7     8   ar
    10     8     9   ar
    11     9    10   ar
    12    10    11   ar
    13    11    15    1
    14    15    16    1
    15    16    17    1
    16    17    18    1
    17    18    21    1
    18    21    22    1
    19    22    23    1
    20    23    24   ar
    21    24    25   ar
    22    25    26   ar
    23    26    27    1
    24    26    28   ar
    25    28    29    1
    26    28    30   ar
    27    18    19    1
    28    19    20    1
    29    11    12   ar
    30    12    13   ar
    31    13    14    1
    32     6     1   ar
    33    12     7   ar
    34    13     5   ar
    35    20    15    1
    36    30    23   ar
    37    32    33    1
@<TRIPOS>MOLECULE
*****
 33 37 0 0 0
SMALL
GASTEIGER

@<TRIPOS>ATOM
      1 C          59.7316   87.0812    7.7859 C.ar    1  UNL1        0.1314
      2 N          59.0355   87.9942    6.8206 N.ar    1  UNL1       -0.2292
      3 C          59.1793   89.4810    6.9576 C.ar    1  UNL1        0.1018
      4 C          60.0192   90.0548    8.0600 C.ar    1  UNL1        0.0380
      5 C          60.7153   89.1418    9.0253 C.ar    1  UNL1        0.0658
      6 C          60.5715   87.6550    8.8883 C.ar    1  UNL1        0.0664
      7 C          61.3705   87.0094    9.9813 C.ar    1  UNL1        0.1056
      8 N          61.5998   85.5715   10.3417 N.ar    1  UNL1       -0.2223
      9 C          62.4667   85.2214   11.5147 C.ar    1  UNL1        0.2001
     10 N          63.1043   86.3091   12.3273 N.ar    1  UNL1       -0.2075
     11 C          62.8750   87.7470   11.9669 C.ar    1  UNL1        0.1509
     12 C          62.0081   88.0971   10.7939 C.ar    1  UNL1        0.1100
     13 N          61.6032   89.4150   10.2030 N.ar    1  UNL1       -0.3216
     14 C          62.0140   90.7686   10.7022 C.3     1  UNL1        0.1306
     15 N          63.5127   88.8347   12.7795 N.pl3   1  UNL1       -0.2892
     16 C          64.1316   88.5139   14.1075 C.3     1  UNL1        0.1095
     17 C          64.7692   89.6018   14.9201 C.3     1  UNL1        0.0939
     18 N          64.7879   91.0102   14.4045 N.3     1  UNL1       -0.2695
     19 C          64.1689   91.3310   13.0764 C.3     1  UNL1        0.0939
     20 C          63.5313   90.2432   12.2639 C.3     1  UNL1        0.1095
     21 C          65.4255   92.0979   15.2171 C.3     1  UNL1        0.0769
     22 C          66.6368   92.8123   14.6950 C.3     1  UNL1        0.0437
     23 C          66.7541   93.1184   13.2312 C.ar    1  UNL1       -0.0184
     24 C          66.2079   94.4055   12.6881 C.ar    1  UNL1       -0.0018
     25 C          66.3252   94.7116   11.2243 C.ar    1  UNL1        0.0316
     26 C          66.9887   93.7306   10.3037 C.ar    1  UNL1        0.1674
     27 F          67.1060   94.0368    8.8400 F       1  UNL1       -0.2018
     28 C          67.5349   92.4435   10.8469 C.ar    1  UNL1        0.1671
     29 F          68.1983   91.4625    9.9263 F       1  UNL1       -0.2018
     30 C          67.4175   92.1374   12.3106 C.ar    1  UNL1        0.0277
     31 C          60.6502   84.7994    6.9496 C.3     1  UNL1        0.1096
     32 N          59.5877   85.5944    7.6489 N.pl3   1  UNL1       -0.3166
     33 H          58.7960   85.1404    8.0179 H       1  UNL1        0.1482
@<TRIPOS>BOND
     1    31    32    1
     2    32     1    1
     3     1     2   ar
     4     2     3   ar
     5     3     4   ar
     6     4     5   ar
     7     5     6   ar
     8     6     7   ar
     9     7     8   ar
    10     8     9   ar
    11     9    10   ar
    12    10    11   ar
    13    11    15    1
    14    15    16    1
    15    16    17    1
    16    17    18    1
    17    18    21    1
    18    21    22    1
    19    22    23    1
    20    23    24   ar
    21    24    25   ar
    22    25    26   ar
    23    26    27    1
    24    26    28   ar
    25    28    29    1
    26    28    30   ar
    27    18    19    1
    28    19    20    1
    29    11    12   ar
    30    12    13   ar
    31    13    14    1
    32     6     1   ar
    33    12     7   ar
    34    13     5   ar
    35    20    15    1
    36    30    23   ar
    37    32    33    1
@<TRIPOS>MOLECULE
*****
 33 37 0 0 0
SMALL
GASTEIGER

@<TRIPOS>ATOM
      1 C          64.1695   84.3348   14.1277 C.ar    1  UNL1        0.1314
      2 N          64.1135   82.8384   14.0407 N.ar    1  UNL1       -0.2292
      3 C          63.3616   82.1797   12.9223 C.ar    1  UNL1        0.1018
      4 C          62.6657   83.0175   11.8909 C.ar    1  UNL1        0.0380
      5 C          62.7216   84.5139   11.9779 C.ar    1  UNL1        0.0658
      6 C          63.4735   85.1725   13.0963 C.ar    1  UNL1        0.0664
      7 C          63.3544   86.6578   12.9233 C.ar    1  UNL1        0.1056
      8 N          63.8910   87.8076   13.7233 N.ar    1  UNL1       -0.2223
      9 C          63.6021   89.2167   13.2979 C.ar    1  UNL1        0.2001
     10 N          62.7767   89.4760   12.0726 N.ar    1  UNL1       -0.2075
     11 C          62.2401   88.3262   11.2727 C.ar    1  UNL1        0.1509
     12 C          62.5290   86.9171   11.6981 C.ar    1  UNL1        0.1100
     13 N          62.1379   85.5921   11.1137 N.ar    1  UNL1       -0.3216
     14 C          61.3086   85.3821    9.8816 C.3     1  UNL1        0.1306
     15 N          61.4146   88.5855   10.0474 N.pl3   1  UNL1       -0.2892
     16 C          60.6394   89.8634    9.9220 C.3     1  UNL1        0.1095
     17 C          59.8139   90.1227    8.6966 C.3     1  UNL1        0.0939
     18 N          59.7637   89.1040    7.5967 N.3     1  UNL1       -0.2695
     19 C          60.5390   87.8260    7.7222 C.3     1  UNL1        0.0939
     20 C          61.3644   87.5668    8.9474 C.3     1  UNL1        0.1095
     21 C          58.9383   89.3633    6.3715 C.3     1  UNL1        0.0769
     22 C          58.7397   90.7681    5.8844 C.3     1  UNL1        0.0437
     23 C          59.6609   91.3398    4.8478 C.ar    1  UNL1       -0.0184
     24 C          59.1778   92.4244    3.9314 C.ar    1  UNL1       -0.0018
     25 C          60.0991   92.9961    2.8948 C.ar    1  UNL1        0.0316
     26 C          61.5035   92.4831    2.7747 C.ar    1  UNL1        0.1674
     27 F          62.4247   93.0548    1.7381 F       1  UNL1       -0.2018
     28 C          61.9866   91.3983    3.6912 C.ar    1  UNL1        0.1671
     29 F          63.3910   90.8853    3.5711 F       1  UNL1       -0.2018
     30 C          61.0654   90.8267    4.7277 C.ar    1  UNL1        0.0277
     31 C          64.1741   85.6094   16.3916 C.3     1  UNL1        0.1096
     32 N          64.9213   84.9934   15.2461 N.pl3   1  UNL1       -0.3166
     33 H          65.9053   85.0214   15.2284 H       1  UNL1        0.1482
@<TRIPOS>BOND
     1    31    32    1
     2    32     1    1
     3     1     2   ar
     4     2     3   ar
     5     3     4   ar
     6     4     5   ar
     7     5     6   ar
     8     6     7   ar
     9     7     8   ar
    10     8     9   ar
    11     9    10   ar
    12    10    11   ar
    13    11    15    1
    14    15    16    1
    15    16    17    1
    16    17    18    1
    17    18    21    1
    18    21    22    1
    19    22    23    1
    20    23    24   ar
    21    24    25   ar
    22    25    26   ar
    23    26    27    1
    24    26    28   ar
    25    28    29    1
    26    28    30   ar
    27    18    19    1
    28    19    20    1
    29    11    12   ar
    30    12    13   ar
    31    13    14    1
    32     6     1   ar
    33    12     7   ar
    34    13     5   ar
    35    20    15    1
    36    30    23   ar
    37    32    33    1
@<TRIPOS>MOLECULE
*****
 33 37 0 0 0
SMALL
GASTEIGER

@<TRIPOS>ATOM
      1 C          64.8843   96.0587   -2.3427 C.ar    1  UNL1        0.1314
      2 N          66.1144   96.8302   -1.9667 N.ar    1  UNL1       -0.2292
      3 C          66.5767   96.8559   -0.5399 C.ar    1  UNL1        0.1018
      4 C          65.8089   96.1100    0.5108 C.ar    1  UNL1        0.0380
      5 C          64.5787   95.3384    0.1347 C.ar    1  UNL1        0.0658
      6 C          64.1165   95.3128   -1.2920 C.ar    1  UNL1        0.0664
      7 C          62.8765   94.4716   -1.3624 C.ar    1  UNL1        0.1056
      8 N          61.9850   94.0918   -2.5074 N.ar    1  UNL1       -0.2223
      9 C          60.7895   93.2178   -2.2692 C.ar    1  UNL1        0.2001
     10 N          60.4854   92.7236   -0.8860 N.ar    1  UNL1       -0.2075
     11 C          61.3769   93.1034    0.2590 C.ar    1  UNL1        0.1509
     12 C          62.5724   93.9774    0.0208 C.ar    1  UNL1        0.1100
     13 N          63.6245   94.5131    0.9461 N.ar    1  UNL1       -0.3216
     14 C          63.7077   94.2668    2.4234 C.3     1  UNL1        0.1306
     15 N          61.0728   92.6091    1.6422 N.pl3   1  UNL1       -0.2892
     16 C          59.7774   92.9777    2.3024 C.3     1  UNL1        0.1095
     17 C          59.4733   92.4834    3.6857 C.3     1  UNL1        0.0939
     18 N          60.4647   91.6206    4.4086 N.3     1  UNL1       -0.2695
     19 C          61.7602   91.2521    3.7484 C.3     1  UNL1        0.0939
     20 C          62.0642   91.7463    2.3652 C.3     1  UNL1        0.1095
     21 C          60.1607   91.1264    5.7918 C.3     1  UNL1        0.0769
     22 C          59.4106   89.8412    5.9811 C.3     1  UNL1        0.0437
     23 C          59.6879   88.9803    7.1777 C.ar    1  UNL1       -0.0184
     24 C          59.3995   87.5092    7.1262 C.ar    1  UNL1       -0.0018
     25 C          59.6767   86.6483    8.3229 C.ar    1  UNL1        0.0316
     26 C          60.2424   87.2584    9.5710 C.ar    1  UNL1        0.1674
     27 F          60.5196   86.3974   10.7676 F       1  UNL1       -0.2018
     28 C          60.5308   88.7295    9.6225 C.ar    1  UNL1        0.1671
     29 F          61.0965   89.3397   10.8705 F       1  UNL1       -0.2018
     30 C          60.2535   89.5904    8.4259 C.ar    1  UNL1        0.0277
     31 C          64.8298   94.9047   -4.6698 C.3     1  UNL1        0.1096
     32 N          64.4220   96.0330   -3.7695 N.pl3   1  UNL1       -0.3166
     33 H          63.8510   96.7567   -4.1150 H       1  UNL1        0.1482
@<TRIPOS>BOND
     1    31    32    1
     2    32     1    1
     3     1     2   ar
     4     2     3   ar
     5     3     4   ar
     6     4     5   ar
     7     5     6   ar
     8     6     7   ar
     9     7     8   ar
    10     8     9   ar
    11     9    10   ar
    12    10    11   ar
    13    11    15    1
    14    15    16    1
    15    16    17    1
    16    17    18    1
    17    18    21    1
    18    21    22    1
    19    22    23    1
    20    23    24   ar
    21    24    25   ar
    22    25    26   ar
    23    26    27    1
    24    26    28   ar
    25    28    29    1
    26    28    30   ar
    27    18    19    1
    28    19    20    1
    29    11    12   ar
    30    12    13   ar
    31    13    14    1
    32     6     1   ar
    33    12     7   ar
    34    13     5   ar
    35    20    15    1
    36    30    23   ar
    37    32    33    1
@<TRIPOS>MOLECULE
*****
 33 37 0 0 0
SMALL
GASTEIGER

@<TRIPOS>ATOM
      1 C          65.8264   93.9794   12.3576 C.ar    1  UNL1        0.1314
      2 N          66.7257   94.6652   13.3429 N.ar    1  UNL1       -0.2292
      3 C          67.1451   93.9554   14.5960 C.ar    1  UNL1        0.1018
      4 C          66.6651   92.5598   14.8639 C.ar    1  UNL1        0.0380
      5 C          65.7658   91.8739   13.8786 C.ar    1  UNL1        0.0658
      6 C          65.3464   92.5837   12.6255 C.ar    1  UNL1        0.0664
      7 C          64.4594   91.6601   11.8444 C.ar    1  UNL1        0.1056
      8 N          63.7524   91.8197   10.5311 N.ar    1  UNL1       -0.2223
      9 C          62.9165   90.6987    9.9882 C.ar    1  UNL1        0.2001
     10 N          62.7877   89.4181   10.7585 N.ar    1  UNL1       -0.2075
     11 C          63.4947   89.2585   12.0718 C.ar    1  UNL1        0.1509
     12 C          64.3306   90.3795   12.6147 C.ar    1  UNL1        0.1100
     13 N          65.1379   90.5117   13.8719 N.ar    1  UNL1       -0.3216
     14 C          65.2907   89.4653   14.9358 C.3     1  UNL1        0.1306
     15 N          63.3659   87.9779   12.8421 N.pl3   1  UNL1       -0.2892
     16 C          62.7533   86.7715   12.1946 C.3     1  UNL1        0.1095
     17 C          62.6245   85.4909   12.9650 C.3     1  UNL1        0.0939
     18 N          63.1082   85.4167   14.3829 N.3     1  UNL1       -0.2695
     19 C          63.7208   86.6231   15.0304 C.3     1  UNL1        0.0939
     20 C          63.8496   87.9036   14.2601 C.3     1  UNL1        0.1095
     21 C          62.9794   84.1361   15.1532 C.3     1  UNL1        0.0769
     22 C          63.8368   82.9576   14.7979 C.3     1  UNL1        0.0437
     23 C          63.6038   82.2211   13.5121 C.ar    1  UNL1       -0.0184
     24 C          62.8284   80.9372   13.5131 C.ar    1  UNL1       -0.0018
     25 C          62.5955   80.2007   12.2272 C.ar    1  UNL1        0.0316
     26 C          63.1381   80.7482   10.9404 C.ar    1  UNL1        0.1674
     27 F          62.9052   80.0117    9.6546 F       1  UNL1       -0.2018
     28 C          63.9136   82.0322   10.9395 C.ar    1  UNL1        0.1671
     29 F          64.4563   82.5796    9.6527 F       1  UNL1       -0.2018
     30 C          64.1465   82.7686   12.2253 C.ar    1  UNL1        0.0277
     31 C          66.3819   95.5676   10.3780 C.3     1  UNL1        0.1096
     32 N          65.4070   94.6891   11.1045 N.pl3   1  UNL1       -0.3166
     33 H          64.4919   94.5784   10.7588 H       1  UNL1        0.1482
@<TRIPOS>BOND
     1    31    32    1
     2    32     1    1
     3     1     2   ar
     4     2     3   ar
     5     3     4   ar
     6     4     5   ar
     7     5     6   ar
     8     6     7   ar
     9     7     8   ar
    10     8     9   ar
    11     9    10   ar
    12    10    11   ar
    13    11    15    1
    14    15    16    1
    15    16    17    1
    16    17    18    1
    17    18    21    1
    18    21    22    1
    19    22    23    1
    20    23    24   ar
    21    24    25   ar
    22    25    26   ar
    23    26    27    1
    24    26    28   ar
    25    28    29    1
    26    28    30   ar
    27    18    19    1
    28    19    20    1
    29    11    12   ar
    30    12    13   ar
    31    13    14    1
    32     6     1   ar
    33    12     7   ar
    34    13     5   ar
    35    20    15    1
    36    30    23   ar
    37    32    33    1
@<TRIPOS>MOLECULE
*****
 33 37 0 0 0
SMALL
GASTEIGER

@<TRIPOS>ATOM
      1 C          60.2477   86.3721    7.6458 C.ar    1  UNL1        0.1314
      2 N          59.3786   87.2565    6.8018 N.ar    1  UNL1       -0.2292
      3 C          59.1274   88.6763    7.2152 C.ar    1  UNL1        0.1018
      4 C          59.7452   89.2118    8.4728 C.ar    1  UNL1        0.0380
      5 C          60.6143   88.3274    9.3168 C.ar    1  UNL1        0.0658
      6 C          60.8655   86.9075    8.9033 C.ar    1  UNL1        0.0664
      7 C          61.7597   86.2772    9.9296 C.ar    1  UNL1        0.1056
      8 N          62.3384   84.8982   10.0454 N.ar    1  UNL1       -0.2223
      9 C          63.2185   84.5494   11.2089 C.ar    1  UNL1        0.2001
     10 N          63.5199   85.5796   12.2567 N.ar    1  UNL1       -0.2075
     11 C          62.9412   86.9586   12.1409 C.ar    1  UNL1        0.1509
     12 C          62.0611   87.3074   10.9773 C.ar    1  UNL1        0.1100
     13 N          61.3532   88.5745   10.5986 N.ar    1  UNL1       -0.3216
     14 C          61.3796   89.8626   11.3668 C.3     1  UNL1        0.1306
     15 N          63.2426   87.9889   13.1886 N.pl3   1  UNL1       -0.2892
     16 C          63.3169   89.4395   12.8146 C.3     1  UNL1        0.1095
     17 C          63.6183   90.4697   13.8624 C.3     1  UNL1        0.0939
     18 N          63.8455   90.0492   15.2842 N.3     1  UNL1       -0.2695
     19 C          63.7713   88.5985   15.6583 C.3     1  UNL1        0.0939
     20 C          63.4698   87.5684   14.6105 C.3     1  UNL1        0.1095
     21 C          64.1469   91.0794   16.3320 C.3     1  UNL1        0.0769
     22 C          64.8168   92.3656   15.9484 C.3     1  UNL1        0.0437
     23 C          66.2322   92.3551   15.4519 C.ar    1  UNL1       -0.0184
     24 C          67.3550   92.7137   16.3794 C.ar    1  UNL1       -0.0018
     25 C          68.7705   92.7032   15.8828 C.ar    1  UNL1        0.0316
     26 C          69.0629   92.3340   14.4587 C.ar    1  UNL1        0.1674
     27 F          70.4783   92.3235   13.9622 F       1  UNL1       -0.2018
     28 C          67.9400   91.9753   13.5311 C.ar    1  UNL1        0.1671
     29 F          68.2325   91.6061   12.1070 F       1  UNL1       -0.2018
     30 C          66.5247   91.9859   14.0277 C.ar    1  UNL1        0.0277
     31 C          61.7393   84.6029    6.4648 C.3     1  UNL1        0.1096
     32 N          60.4989   84.9523    7.2323 N.pl3   1  UNL1       -0.3166
     33 H          59.8496   84.2497    7.4647 H       1  UNL1        0.1482
@<TRIPOS>BOND
     1    31    32    1
     2    32     1    1
     3     1     2   ar
     4     2     3   ar
     5     3     4   ar
     6     4     5   ar
     7     5     6   ar
     8     6     7   ar
     9     7     8   ar
    10     8     9   ar
    11     9    10   ar
    12    10    11   ar
    13    11    15    1
    14    15    16    1
    15    16    17    1
    16    17    18    1
    17    18    21    1
    18    21    22    1
    19    22    23    1
    20    23    24   ar
    21    24    25   ar
    22    25    26   ar
    23    26    27    1
    24    26    28   ar
    25    28    29    1
    26    28    30   ar
    27    18    19    1
    28    19    20    1
    29    11    12   ar
    30    12    13   ar
    31    13    14    1
    32     6     1   ar
    33    12     7   ar
    34    13     5   ar
    35    20    15    1
    36    30    23   ar
    37    32    33    1
