@<TRIPOS>MOLECULE
*****
 34 36 0 0 0
SMALL
GASTEIGER

@<TRIPOS>ATOM
      1 C          64.8988   91.5578   13.0981 C.ar    1  UNL1       -0.0185
      2 C          64.2176   91.7952   11.7830 C.ar    1  UNL1       -0.0041
      3 C          64.6443   92.9404   10.9132 C.ar    1  UNL1        0.0057
      4 C          65.7523   93.8482   11.3585 C.ar    1  UNL1        0.0696
      5 C          66.4335   93.6107   12.6737 C.ar    1  UNL1        0.0095
      6 C          66.0068   92.4656   13.5435 C.ar    1  UNL1        0.0677
      7 C          63.1919   86.9773   16.5774 C.2     1  UNL1        0.2834
      8 O          62.8164   87.2221   18.0088 O.2     1  UNL1       -0.2666
      9 N          63.6186   88.1225   15.7075 N.am    1  UNL1       -0.2736
     10 C          63.6699   89.5124   16.2692 C.3     1  UNL1        0.0941
     11 C          64.0966   90.6574   15.3994 C.3     1  UNL1        0.0259
     12 C          64.4720   90.4126   13.9679 C.3     1  UNL1        0.0257
     13 C          64.4208   89.0228   13.4063 C.3     1  UNL1        0.0259
     14 C          63.9940   87.8777   14.2761 C.3     1  UNL1        0.0941
     15 C          65.6515   85.4065   15.1171 C.3     1  UNL1        0.1321
     16 N          64.2712   84.8654   15.3445 N.ar    1  UNL1       -0.3046
     17 C          63.7791   83.5072   14.9406 C.ar    1  UNL1        0.0981
     18 C          62.3443   83.3898   15.3622 C.ar    1  UNL1        0.1193
     19 N          61.9497   84.6754   16.0266 N.ar    1  UNL1       -0.2210
     20 C          63.1406   85.5874   16.0157 C.ar    1  UNL1        0.1986
     21 C          66.1790   94.9933   10.4888 C.2     1  UNL1        0.3078
     22 O          66.5934   96.2938   11.1109 O.2     1  UNL1       -0.2516
     23 N          66.1914   94.8379    8.9970 N.am    1  UNL1       -0.1708
     24 H          65.9194   93.9844    8.5887 H       1  UNL1        0.2545
     25 C          66.6182   95.9831    8.1271 C.2     1  UNL1        0.3751
     26 N          65.7214   96.4619    7.0241 N.pl3   1  UNL1       -0.1313
     27 N          67.9416   96.6494    8.3603 N.pl3   1  UNL1       -0.2906
     28 H          64.8528   96.0246    6.8711 H       1  UNL1        0.3060
     29 H          68.5302   96.3352    9.0842 H       1  UNL1        0.2545
     30 H          68.2217   97.4010    7.7894 H       1  UNL1        0.2545
     31 C          66.6880   92.2282   14.8587 C.3     1  UNL1        0.4183
     32 F          67.3692   91.9908   16.1738 F       1  UNL1       -0.1659
     33 F          65.7823   93.2316   15.5089 F       1  UNL1       -0.1659
     34 F          67.5937   91.2248   14.2084 F       1  UNL1       -0.1659
@<TRIPOS>BOND
     1    15    16    1
     2    16    17   ar
     3    17    18   ar
     4    18    19   ar
     5    19    20   ar
     6    20     7    1
     7     7     8    2
     8     7     9   am
     9     9    10    1
    10    10    11    1
    11    11    12    1
    12    12     1    1
    13     1     2   ar
    14     2     3   ar
    15     3     4   ar
    16     4    21    1
    17    21    22    2
    18    21    23   am
    19    23    25    1
    20    25    26    2
    21    25    27    1
    22     4     5   ar
    23     5     6   ar
    24     6    31    1
    25    31    32    1
    26    31    33    1
    27    31    34    1
    28    12    13    1
    29    13    14    1
    30    20    16   ar
    31    14     9    1
    32     6     1   ar
    33    23    24    1
    34    26    28    1
    35    27    29    1
    36    27    30    1
@<TRIPOS>MOLECULE
*****
 34 36 0 0 0
SMALL
GASTEIGER

@<TRIPOS>ATOM
      1 C          60.8951   87.1444    8.7035 C.ar    1  UNL1       -0.0185
      2 C          60.1319   86.6606    7.5063 C.ar    1  UNL1       -0.0041
      3 C          59.3504   87.6320    6.6722 C.ar    1  UNL1        0.0057
      4 C          59.3322   89.0873    7.0353 C.ar    1  UNL1        0.0696
      5 C          60.0955   89.5711    8.2325 C.ar    1  UNL1        0.0095
      6 C          60.8769   88.5997    9.0666 C.ar    1  UNL1        0.0677
      7 C          64.0210   83.2589   12.0398 C.2     1  UNL1        0.2834
      8 O          64.9949   82.3234   11.3867 O.2     1  UNL1       -0.2666
      9 N          63.2395   84.2303   11.2057 N.am    1  UNL1       -0.2736
     10 C          63.4319   84.2662    9.7186 C.3     1  UNL1        0.0941
     11 C          62.6505   85.2376    8.8845 C.3     1  UNL1        0.0259
     12 C          61.6766   86.1730    9.5376 C.3     1  UNL1        0.0257
     13 C          61.4842   86.1371   11.0248 C.3     1  UNL1        0.0259
     14 C          62.2657   85.1657   11.8588 C.3     1  UNL1        0.0941
     15 C          61.8119   81.4726   13.6456 C.3     1  UNL1        0.1321
     16 N          62.8132   82.4019   14.2651 N.ar    1  UNL1       -0.3046
     17 C          62.9749   82.6732   15.7314 C.ar    1  UNL1        0.0981
     18 C          64.0903   83.6620   15.8996 C.ar    1  UNL1        0.1193
     19 N          64.6179   84.0017   14.5372 N.ar    1  UNL1       -0.2210
     20 C          63.8286   83.2229   13.5270 C.ar    1  UNL1        0.1986
     21 C          58.5507   90.0586    6.2012 C.2     1  UNL1        0.3078
     22 O          57.0514   90.0143    6.2055 O.2     1  UNL1       -0.2516
     23 N          59.2686   91.0744    5.3629 N.am    1  UNL1       -0.1708
     24 H          60.2527   91.1035    5.3601 H       1  UNL1        0.2545
     25 C          58.4872   92.0458    4.5288 C.2     1  UNL1        0.3751
     26 N          57.1474   92.5297    4.9988 N.pl3   1  UNL1       -0.1313
     27 N          59.0455   92.5334    3.2247 N.pl3   1  UNL1       -0.2906
     28 H          56.7810   92.2097    5.8547 H       1  UNL1        0.3060
     29 H          59.9248   92.2158    2.9163 H       1  UNL1        0.2545
     30 H          58.5326   93.1709    2.6773 H       1  UNL1        0.2545
     31 C          61.6402   89.0836   10.2639 C.3     1  UNL1        0.4183
     32 F          62.4034   89.5674   11.4611 F       1  UNL1       -0.1659
     33 F          60.3571   89.2111   11.0303 F       1  UNL1       -0.1659
     34 F          62.9233   88.9560    9.4974 F       1  UNL1       -0.1659
@<TRIPOS>BOND
     1    15    16    1
     2    16    17   ar
     3    17    18   ar
     4    18    19   ar
     5    19    20   ar
     6    20     7    1
     7     7     8    2
     8     7     9   am
     9     9    10    1
    10    10    11    1
    11    11    12    1
    12    12     1    1
    13     1     2   ar
    14     2     3   ar
    15     3     4   ar
    16     4    21    1
    17    21    22    2
    18    21    23   am
    19    23    25    1
    20    25    26    2
    21    25    27    1
    22     4     5   ar
    23     5     6   ar
    24     6    31    1
    25    31    32    1
    26    31    33    1
    27    31    34    1
    28    12    13    1
    29    13    14    1
    30    20    16   ar
    31    14     9    1
    32     6     1   ar
    33    23    24    1
    34    26    28    1
    35    27    29    1
    36    27    30    1
@<TRIPOS>MOLECULE
*****
 34 36 0 0 0
SMALL
GASTEIGER

@<TRIPOS>ATOM
      1 C          60.9020   87.8271    9.4951 C.ar    1  UNL1       -0.0185
      2 C          60.2004   87.1064    8.3824 C.ar    1  UNL1       -0.0041
      3 C          59.4568   87.8836    7.3368 C.ar    1  UNL1        0.0057
      4 C          59.4150   89.3815    7.4040 C.ar    1  UNL1        0.0696
      5 C          60.1166   90.1022    8.5168 C.ar    1  UNL1        0.0095
      6 C          60.8601   89.3250    9.5623 C.ar    1  UNL1        0.0677
      7 C          63.8761   84.7186   13.6775 C.2     1  UNL1        0.2834
      8 O          64.7711   85.4319   14.6471 O.2     1  UNL1       -0.2666
      9 N          63.1326   85.4958   12.6319 N.am    1  UNL1       -0.2736
     10 C          63.2841   86.9862   12.5560 C.3     1  UNL1        0.0941
     11 C          62.5405   87.7632   11.5104 C.3     1  UNL1        0.0259
     12 C          61.6455   87.0500   10.5407 C.3     1  UNL1        0.0257
     13 C          61.4940   85.5596   10.6167 C.3     1  UNL1        0.0259
     14 C          62.2376   84.7825   11.6623 C.3     1  UNL1        0.0941
     15 C          64.7626   82.5808   11.3768 C.3     1  UNL1        0.1321
     16 N          64.1321   82.2456   12.6959 N.ar    1  UNL1       -0.3046
     17 C          63.7984   80.8689   13.1891 C.ar    1  UNL1        0.0981
     18 C          63.1847   81.0007   14.5515 C.ar    1  UNL1        0.1193
     19 N          63.1391   82.4589   14.9003 N.ar    1  UNL1       -0.2210
     20 C          63.7246   83.2283   13.7535 C.ar    1  UNL1        0.1986
     21 C          58.6715   90.1586    6.3585 C.2     1  UNL1        0.3078
     22 O          57.2330   89.8445    6.0718 O.2     1  UNL1       -0.2516
     23 N          59.3664   91.2499    5.5995 N.am    1  UNL1       -0.1708
     24 H          60.3105   91.4561    5.7876 H       1  UNL1        0.2545
     25 C          58.6229   92.0272    4.5539 C.2     1  UNL1        0.3751
     26 N          57.1749   92.3618    4.7565 N.pl3   1  UNL1       -0.1313
     27 N          59.3275   92.4697    3.3059 N.pl3   1  UNL1       -0.2906
     28 H          56.7124   92.0714    5.5756 H       1  UNL1        0.3060
     29 H          60.2780   92.2500    3.1730 H       1  UNL1        0.2545
     30 H          58.8396   92.9798    2.6196 H       1  UNL1        0.2545
     31 C          61.5618   90.0458   10.6751 C.3     1  UNL1        0.4183
     32 F          62.2635   90.7665   11.7878 F       1  UNL1       -0.1659
     33 F          62.8003   90.1387    9.8339 F       1  UNL1       -0.1659
     34 F          60.3234   89.9528   11.5163 F       1  UNL1       -0.1659
@<TRIPOS>BOND
     1    15    16    1
     2    16    17   ar
     3    17    18   ar
     4    18    19   ar
     5    19    20   ar
     6    20     7    1
     7     7     8    2
     8     7     9   am
     9     9    10    1
    10    10    11    1
    11    11    12    1
    12    12     1    1
    13     1     2   ar
    14     2     3   ar
    15     3     4   ar
    16     4    21    1
    17    21    22    2
    18    21    23   am
    19    23    25    1
    20    25    26    2
    21    25    27    1
    22     4     5   ar
    23     5     6   ar
    24     6    31    1
    25    31    32    1
    26    31    33    1
    27    31    34    1
    28    12    13    1
    29    13    14    1
    30    20    16   ar
    31    14     9    1
    32     6     1   ar
    33    23    24    1
    34    26    28    1
    35    27    29    1
    36    27    30    1
@<TRIPOS>MOLECULE
*****
 34 36 0 0 0
SMALL
GASTEIGER

@<TRIPOS>ATOM
      1 C          61.8516   92.8994    1.8876 C.ar    1  UNL1       -0.0185
      2 C          62.5461   91.8681    2.7267 C.ar    1  UNL1       -0.0041
      3 C          61.8233   91.2216    3.8711 C.ar    1  UNL1        0.0057
      4 C          60.4061   91.6065    4.1764 C.ar    1  UNL1        0.0696
      5 C          59.7116   92.6378    3.3373 C.ar    1  UNL1        0.0095
      6 C          60.4343   93.2842    2.1929 C.ar    1  UNL1        0.0677
      7 C          64.7427   95.4854   -2.6901 C.2     1  UNL1        0.2834
      8 O          65.8289   96.4847   -2.4226 O.2     1  UNL1       -0.2666
      9 N          64.0199   94.8389   -1.5456 N.am    1  UNL1       -0.2736
     10 C          64.3834   95.1917   -0.1337 C.3     1  UNL1        0.0941
     11 C          63.6606   94.5452    1.0106 C.3     1  UNL1        0.0259
     12 C          62.5744   93.5459    0.7431 C.3     1  UNL1        0.0257
     13 C          62.2110   93.1931   -0.6687 C.3     1  UNL1        0.0259
     14 C          62.9338   93.8396   -1.8131 C.3     1  UNL1        0.0941
     15 C          62.3609   96.8490   -4.4556 C.3     1  UNL1        0.1321
     16 N          63.2845   95.7593   -4.9135 N.ar    1  UNL1       -0.3046
     17 C          63.2754   95.1051   -6.2633 C.ar    1  UNL1        0.0981
     18 C          64.3647   94.0740   -6.2859 C.ar    1  UNL1        0.1193
     19 N          65.0469   94.0910   -4.9501 N.ar    1  UNL1       -0.2210
     20 C          64.3793   95.1325   -4.1019 C.ar    1  UNL1        0.1986
     21 C          59.6833   90.9600    5.3208 C.2     1  UNL1        0.3078
     22 O          58.2296   91.2504    5.5497 O.2     1  UNL1       -0.2516
     23 N          60.4142   90.0232    6.2363 N.am    1  UNL1       -0.1708
     24 H          61.3683   89.8327    6.0860 H       1  UNL1        0.2545
     25 C          59.6914   89.3767    7.3807 C.2     1  UNL1        0.3751
     26 N          58.5861   88.3987    7.1131 N.pl3   1  UNL1       -0.1313
     27 N          60.0740   89.7083    8.7927 N.pl3   1  UNL1       -0.2906
     28 H          58.3350   88.1811    6.1864 H       1  UNL1        0.3060
     29 H          60.7995   90.3502    8.9683 H       1  UNL1        0.2545
     30 H          59.5997   89.2840    9.5438 H       1  UNL1        0.2545
     31 C          59.7398   94.3156    1.3537 C.3     1  UNL1        0.4183
     32 F          59.0454   95.3469    0.5147 F       1  UNL1       -0.1659
     33 F          60.3519   95.4039    2.1849 F       1  UNL1       -0.1659
     34 F          59.1278   93.2272    0.5226 F       1  UNL1       -0.1659
@<TRIPOS>BOND
     1    15    16    1
     2    16    17   ar
     3    17    18   ar
     4    18    19   ar
     5    19    20   ar
     6    20     7    1
     7     7     8    2
     8     7     9   am
     9     9    10    1
    10    10    11    1
    11    11    12    1
    12    12     1    1
    13     1     2   ar
    14     2     3   ar
    15     3     4   ar
    16     4    21    1
    17    21    22    2
    18    21    23   am
    19    23    25    1
    20    25    26    2
    21    25    27    1
    22     4     5   ar
    23     5     6   ar
    24     6    31    1
    25    31    32    1
    26    31    33    1
    27    31    34    1
    28    12    13    1
    29    13    14    1
    30    20    16   ar
    31    14     9    1
    32     6     1   ar
    33    23    24    1
    34    26    28    1
    35    27    29    1
    36    27    30    1
@<TRIPOS>MOLECULE
*****
 34 36 0 0 0
SMALL
GASTEIGER

@<TRIPOS>ATOM
      1 C          63.1962   84.9667   12.2585 C.ar    1  UNL1       -0.0185
      2 C          63.1708   84.4421   10.8535 C.ar    1  UNL1       -0.0041
      3 C          63.0834   82.9652   10.6058 C.ar    1  UNL1        0.0057
      4 C          63.0213   82.0131   11.7632 C.ar    1  UNL1        0.0696
      5 C          63.0467   82.5378   13.1682 C.ar    1  UNL1        0.0095
      6 C          63.1341   84.0146   13.4159 C.ar    1  UNL1        0.0677
      7 C          63.5461   90.8741   13.2492 C.2     1  UNL1        0.2834
      8 O          62.9075   91.8345   12.2901 O.2     1  UNL1       -0.2666
      9 N          63.4586   89.3972   13.0015 N.am    1  UNL1       -0.2736
     10 C          62.7326   88.8808   11.7947 C.3     1  UNL1        0.0941
     11 C          62.6452   87.4040   11.5471 C.3     1  UNL1        0.0259
     12 C          63.2837   86.4436   12.5062 C.3     1  UNL1        0.0257
     13 C          64.0097   86.9600   13.7129 C.3     1  UNL1        0.0259
     14 C          64.0971   88.4368   13.9606 C.3     1  UNL1        0.0941
     15 C          66.6048   92.0100   13.3072 C.3     1  UNL1        0.1321
     16 N          65.6780   91.9126   14.4826 N.ar    1  UNL1       -0.3046
     17 C          65.9945   92.3202   15.8910 C.ar    1  UNL1        0.0981
     18 C          64.7841   92.0500   16.7348 C.ar    1  UNL1        0.1193
     19 N          63.7196   91.4754   15.8478 N.ar    1  UNL1       -0.2210
     20 C          64.2721   91.3904   14.4559 C.ar    1  UNL1        0.1986
     21 C          62.9338   80.5363   11.5155 C.2     1  UNL1        0.3078
     22 O          62.5474   79.6104   12.6306 O.2     1  UNL1       -0.2516
     23 N          63.2327   79.9854   10.1528 N.am    1  UNL1       -0.1708
     24 H          63.4863   80.5931    9.4209 H       1  UNL1        0.2545
     25 C          63.1453   78.5085    9.9051 C.2     1  UNL1        0.3751
     26 N          64.1642   77.8320    9.0367 N.pl3   1  UNL1       -0.1313
     27 N          62.0389   77.7081   10.5258 N.pl3   1  UNL1       -0.2906
     28 H          64.8903   78.3574    8.6292 H       1  UNL1        0.3060
     29 H          61.3701   78.1521   11.0958 H       1  UNL1        0.2545
     30 H          61.9815   76.7388   10.3633 H       1  UNL1        0.2545
     31 C          63.1595   84.5393   14.8209 C.3     1  UNL1        0.4183
     32 F          63.1850   85.0639   16.2259 F       1  UNL1       -0.1659
     33 F          64.6486   84.3628   14.8598 F       1  UNL1       -0.1659
     34 F          61.6705   84.7157   14.7820 F       1  UNL1       -0.1659
@<TRIPOS>BOND
     1    15    16    1
     2    16    17   ar
     3    17    18   ar
     4    18    19   ar
     5    19    20   ar
     6    20     7    1
     7     7     8    2
     8     7     9   am
     9     9    10    1
    10    10    11    1
    11    11    12    1
    12    12     1    1
    13     1     2   ar
    14     2     3   ar
    15     3     4   ar
    16     4    21    1
    17    21    22    2
    18    21    23   am
    19    23    25    1
    20    25    26    2
    21    25    27    1
    22     4     5   ar
    23     5     6   ar
    24     6    31    1
    25    31    32    1
    26    31    33    1
    27    31    34    1
    28    12    13    1
    29    13    14    1
    30    20    16   ar
    31    14     9    1
    32     6     1   ar
    33    23    24    1
    34    26    28    1
    35    27    29    1
    36    27    30    1
@<TRIPOS>MOLECULE
*****
 34 36 0 0 0
SMALL
GASTEIGER

@<TRIPOS>ATOM
      1 C          64.1429   89.2451   13.0583 C.ar    1  UNL1       -0.0185
      2 C          64.7379   88.4692   14.1958 C.ar    1  UNL1       -0.0041
      3 C          64.2666   87.0736   14.4794 C.ar    1  UNL1        0.0057
      4 C          63.2004   86.4540   13.6254 C.ar    1  UNL1        0.0696
      5 C          62.6054   87.2300   12.4879 C.ar    1  UNL1        0.0095
      6 C          63.0767   88.6255   12.2044 C.ar    1  UNL1        0.0677
      7 C          66.0280   94.8273   11.9242 C.2     1  UNL1        0.2834
      8 O          66.5869   95.6698   13.0322 O.2     1  UNL1       -0.2666
      9 N          65.5567   93.4317   12.2078 N.am    1  UNL1       -0.2736
     10 C          65.6443   92.8787   13.5993 C.3     1  UNL1        0.0941
     11 C          65.1731   91.4832   13.8828 C.3     1  UNL1        0.0259
     12 C          64.6142   90.6407   12.7748 C.3     1  UNL1        0.0257
     13 C          64.5266   91.1937   11.3832 C.3     1  UNL1        0.0259
     14 C          64.9979   92.5892   11.0997 C.3     1  UNL1        0.0941
     15 C          67.9502   94.0183    9.4141 C.3     1  UNL1        0.1321
     16 N          66.8239   95.0084    9.3789 N.ar    1  UNL1       -0.3046
     17 C          66.3835   95.8005    8.1836 C.ar    1  UNL1        0.0981
     18 C          65.2277   96.6619    8.5987 C.ar    1  UNL1        0.1193
     19 N          64.9539   96.4021   10.0505 N.ar    1  UNL1       -0.2210
     20 C          65.9404   95.3803   10.5326 C.ar    1  UNL1        0.1986
     21 C          62.7291   85.0585   13.9089 C.2     1  UNL1        0.3078
     22 O          61.7554   84.8073   15.0220 O.2     1  UNL1       -0.2516
     23 N          63.2315   83.9142   13.0794 N.am    1  UNL1       -0.1708
     24 H          63.8705   84.0791   12.3489 H       1  UNL1        0.2545
     25 C          62.7602   82.5186   13.3629 C.2     1  UNL1        0.3751
     26 N          62.5397   82.0746   14.7786 N.pl3   1  UNL1       -0.1313
     27 N          62.5094   81.5672   12.2307 N.pl3   1  UNL1       -0.2906
     28 H          62.7043   82.6990   15.5217 H       1  UNL1        0.3060
     29 H          62.6542   81.8587   11.3015 H       1  UNL1        0.2545
     30 H          62.2001   80.6513   12.4168 H       1  UNL1        0.2545
     31 C          62.4817   89.4015   11.0668 C.3     1  UNL1        0.4183
     32 F          61.8868   90.1775    9.9294 F       1  UNL1       -0.1659
     33 F          61.7636   90.2839   12.0444 F       1  UNL1       -0.1659
     34 F          63.1999   88.5192   10.0892 F       1  UNL1       -0.1659
@<TRIPOS>BOND
     1    15    16    1
     2    16    17   ar
     3    17    18   ar
     4    18    19   ar
     5    19    20   ar
     6    20     7    1
     7     7     8    2
     8     7     9   am
     9     9    10    1
    10    10    11    1
    11    11    12    1
    12    12     1    1
    13     1     2   ar
    14     2     3   ar
    15     3     4   ar
    16     4    21    1
    17    21    22    2
    18    21    23   am
    19    23    25    1
    20    25    26    2
    21    25    27    1
    22     4     5   ar
    23     5     6   ar
    24     6    31    1
    25    31    32    1
    26    31    33    1
    27    31    34    1
    28    12    13    1
    29    13    14    1
    30    20    16   ar
    31    14     9    1
    32     6     1   ar
    33    23    24    1
    34    26    28    1
    35    27    29    1
    36    27    30    1
@<TRIPOS>MOLECULE
*****
 34 36 0 0 0
SMALL
GASTEIGER

@<TRIPOS>ATOM
      1 C          56.8916   94.8818   -1.4298 C.ar    1  UNL1       -0.0185
      2 C          56.0721   96.0234   -0.9054 C.ar    1  UNL1       -0.0041
      3 C          54.7089   96.2904   -1.4715 C.ar    1  UNL1        0.0057
      4 C          54.1652   95.4157   -2.5621 C.ar    1  UNL1        0.0696
      5 C          54.9848   94.2740   -3.0865 C.ar    1  UNL1        0.0095
      6 C          56.3479   94.0071   -2.5203 C.ar    1  UNL1        0.0677
      7 C          62.3443   93.8139    0.8348 C.2     1  UNL1        0.2834
      8 O          62.5670   92.6285    1.7265 O.2     1  UNL1       -0.2666
      9 N          60.9810   94.0808    0.2686 N.am    1  UNL1       -0.2736
     10 C          59.8407   93.1624    0.5942 C.3     1  UNL1        0.0941
     11 C          58.4776   93.4294    0.0281 C.3     1  UNL1        0.0259
     12 C          58.2548   94.6148   -0.8636 C.3     1  UNL1        0.0257
     13 C          59.3951   95.5332   -1.1892 C.3     1  UNL1        0.0259
     14 C          60.7583   95.2662   -0.6231 C.3     1  UNL1        0.0941
     15 C          64.0144   93.8793   -1.9680 C.3     1  UNL1        0.1321
     16 N          64.2523   94.7623   -0.7791 N.ar    1  UNL1       -0.3046
     17 C          65.2997   95.8305   -0.6698 C.ar    1  UNL1        0.0981
     18 C          65.1793   96.4607    0.6861 C.ar    1  UNL1        0.1193
     19 N          64.0575   95.7819    1.4148 N.ar    1  UNL1       -0.2210
     20 C          63.4846   94.7323    0.5092 C.ar    1  UNL1        0.1986
     21 C          52.8021   95.6826   -3.1282 C.2     1  UNL1        0.3078
     22 O          51.5784   95.3081   -2.3457 O.2     1  UNL1       -0.2516
     23 N          52.6626   96.3240   -4.4769 N.am    1  UNL1       -0.1708
     24 H          53.4658   96.5698   -4.9905 H       1  UNL1        0.2545
     25 C          51.2994   96.5910   -5.0432 C.2     1  UNL1        0.3751
     26 N          50.1442   96.8558   -4.1238 N.pl3   1  UNL1       -0.1313
     27 N          51.0916   96.5931   -6.5287 N.pl3   1  UNL1       -0.2906
     28 H          50.2806   96.8545   -3.1488 H       1  UNL1        0.3060
     29 H          51.8498   96.4192   -7.1320 H       1  UNL1        0.2545
     30 H          50.1969   96.7683   -6.9003 H       1  UNL1        0.2545
     31 C          57.1675   92.8654   -3.0447 C.3     1  UNL1        0.4183
     32 F          57.9870   91.7238   -3.5691 F       1  UNL1       -0.1659
     33 F          57.9047   93.8094   -3.9477 F       1  UNL1       -0.1659
     34 F          56.4303   91.9214   -2.1418 F       1  UNL1       -0.1659
@<TRIPOS>BOND
     1    15    16    1
     2    16    17   ar
     3    17    18   ar
     4    18    19   ar
     5    19    20   ar
     6    20     7    1
     7     7     8    2
     8     7     9   am
     9     9    10    1
    10    10    11    1
    11    11    12    1
    12    12     1    1
    13     1     2   ar
    14     2     3   ar
    15     3     4   ar
    16     4    21    1
    17    21    22    2
    18    21    23   am
    19    23    25    1
    20    25    26    2
    21    25    27    1
    22     4     5   ar
    23     5     6   ar
    24     6    31    1
    25    31    32    1
    26    31    33    1
    27    31    34    1
    28    12    13    1
    29    13    14    1
    30    20    16   ar
    31    14     9    1
    32     6     1   ar
    33    23    24    1
    34    26    28    1
    35    27    29    1
    36    27    30    1
@<TRIPOS>MOLECULE
*****
 34 36 0 0 0
SMALL
GASTEIGER

@<TRIPOS>ATOM
      1 C          63.2576   85.1004   12.3278 C.ar    1  UNL1       -0.0185
      2 C          63.7234   84.1247   13.3674 C.ar    1  UNL1       -0.0041
      3 C          63.6129   82.6501   13.1152 C.ar    1  UNL1        0.0057
      4 C          63.0366   82.1514   11.8232 C.ar    1  UNL1        0.0696
      5 C          62.5708   83.1272   10.7835 C.ar    1  UNL1        0.0095
      6 C          62.6813   84.6016   11.0358 C.ar    1  UNL1        0.0677
      7 C          63.6996   90.9985   13.3366 C.2     1  UNL1        0.2834
      8 O          63.1207   91.9729   12.3541 O.2     1  UNL1       -0.2666
      9 N          63.5891   89.5239   13.0844 N.am    1  UNL1       -0.2736
     10 C          62.8997   89.0238   11.8497 C.3     1  UNL1        0.0941
     11 C          62.7892   87.5493   11.5975 C.3     1  UNL1        0.0259
     12 C          63.3682   86.5749   12.5800 C.3     1  UNL1        0.0257
     13 C          64.0576   87.0750   13.8147 C.3     1  UNL1        0.0259
     14 C          64.1681   88.5495   14.0669 C.3     1  UNL1        0.0941
     15 C          66.7982   92.0041   13.5295 C.3     1  UNL1        0.1321
     16 N          65.8133   91.9608   14.6600 N.ar    1  UNL1       -0.3046
     17 C          66.0798   92.3721   16.0777 C.ar    1  UNL1        0.0981
     18 C          64.8202   92.1640   16.8652 C.ar    1  UNL1        0.1193
     19 N          63.7753   91.6241   15.9342 N.ar    1  UNL1       -0.2210
     20 C          64.3890   91.4985   14.5714 C.ar    1  UNL1        0.1986
     21 C          62.9261   80.6769   11.5709 C.2     1  UNL1        0.3078
     22 O          62.5297   79.7531   12.6843 O.2     1  UNL1       -0.2516
     23 N          63.2119   80.1262   10.2053 N.am    1  UNL1       -0.1708
     24 H          63.4721   80.7325    9.4746 H       1  UNL1        0.2545
     25 C          63.1014   78.6517    9.9530 C.2     1  UNL1        0.3751
     26 N          64.1177   77.9596    9.0938 N.pl3   1  UNL1       -0.1313
     27 N          61.9747   77.8693   10.5598 N.pl3   1  UNL1       -0.2906
     28 H          64.8572   78.4731    8.6955 H       1  UNL1        0.3060
     29 H          61.3076   78.3236   11.1237 H       1  UNL1        0.2545
     30 H          61.9021   76.9015   10.3942 H       1  UNL1        0.2545
     31 C          62.2155   85.5775    9.9961 C.3     1  UNL1        0.4183
     32 F          61.7497   86.5532    8.9565 F       1  UNL1       -0.1659
     33 F          63.4879   85.3684    9.2299 F       1  UNL1       -0.1659
     34 F          60.9431   85.7866   10.7624 F       1  UNL1       -0.1659
@<TRIPOS>BOND
     1    15    16    1
     2    16    17   ar
     3    17    18   ar
     4    18    19   ar
     5    19    20   ar
     6    20     7    1
     7     7     8    2
     8     7     9   am
     9     9    10    1
    10    10    11    1
    11    11    12    1
    12    12     1    1
    13     1     2   ar
    14     2     3   ar
    15     3     4   ar
    16     4    21    1
    17    21    22    2
    18    21    23   am
    19    23    25    1
    20    25    26    2
    21    25    27    1
    22     4     5   ar
    23     5     6   ar
    24     6    31    1
    25    31    32    1
    26    31    33    1
    27    31    34    1
    28    12    13    1
    29    13    14    1
    30    20    16   ar
    31    14     9    1
    32     6     1   ar
    33    23    24    1
    34    26    28    1
    35    27    29    1
    36    27    30    1
