@<TRIPOS>MOLECULE
*****
 33 37 0 0 0
SMALL
GASTEIGER

@<TRIPOS>ATOM
      1 C          62.8034   86.8224   11.9270 C.2     1  UNL1        0.2506
      2 O          63.6141   87.4245   13.0361 O.2     1  UNL1       -0.2699
      3 N          61.8381   87.6735   11.1564 N.am    1  UNL1       -0.2723
      4 C          61.0274   87.0715   10.0472 C.3     1  UNL1        0.1257
      5 C          60.0621   87.9225    9.2766 C.3     1  UNL1        0.1637
      6 O          59.9075   89.3756    9.6151 O.3     1  UNL1       -0.3502
      7 C          60.7182   89.9777   10.7243 C.3     1  UNL1        0.1622
      8 C          61.6836   89.1266   11.4949 C.3     1  UNL1        0.1097
      9 C          63.4218   81.0101   10.5728 C.3     1  UNL1        0.0311
     10 C          63.2672   82.4631   10.9113 C.ar    1  UNL1       -0.0203
     11 C          63.1455   83.4798    9.8152 C.ar    1  UNL1       -0.0040
     12 C          62.9909   84.9329   10.1537 C.ar    1  UNL1        0.0058
     13 C          62.9580   85.3693   11.5884 C.ar    1  UNL1        0.0729
     14 C          63.0797   84.3527   12.6846 C.ar    1  UNL1        0.1069
     15 C          63.2343   82.8996   12.3460 C.ar    1  UNL1        0.0168
     16 N          63.0468   84.7891   14.1194 N.ar    1  UNL1       -0.1477
     17 N          61.8457   84.7754   15.0178 N.ar    1  UNL1       -0.1447
     18 C          62.2658   85.2936   16.3613 C.ar    1  UNL1        0.1446
     19 C          63.7266   85.6277   16.2931 C.ar    1  UNL1        0.1446
     20 N          64.2092   85.3159   14.9076 N.ar    1  UNL1       -0.1447
     21 C          62.4943   89.7286   12.6041 C.3     1  UNL1        0.0510
     22 C          63.5881   90.7054   12.2887 C.ar    1  UNL1        0.0086
     23 C          63.6652   91.3313   10.9278 C.ar    1  UNL1       -0.0019
     24 C          64.7590   92.3081   10.6124 C.ar    1  UNL1        0.0014
     25 C          65.7757   92.6590   11.6579 C.ar    1  UNL1        0.0232
     26 C          65.6985   92.0331   13.0189 C.ar    1  UNL1        0.1299
     27 C          64.6047   91.0563   13.3343 C.ar    1  UNL1        0.1554
     28 F          64.5276   90.4304   14.6953 F       1  UNL1       -0.2029
     29 N          66.7152   92.3840   14.0645 N.ar    1  UNL1       -0.1456
     30 N          68.2049   92.3113   13.9053 N.ar    1  UNL1       -0.1446
     31 C          68.8310   92.7515   15.1953 C.ar    1  UNL1        0.1446
     32 C          67.7282   93.0963   16.1519 C.ar    1  UNL1        0.1446
     33 N          66.4206   92.8692   15.4530 N.ar    1  UNL1       -0.1446
@<TRIPOS>BOND
     1     9    10    1
     2    10    11   ar
     3    11    12   ar
     4    12    13   ar
     5    13     1    1
     6     1     2    2
     7     1     3   am
     8     3     4    1
     9     4     5    1
    10     5     6    1
    11     6     7    1
    12     7     8    1
    13     8    21    1
    14    21    22    1
    15    22    23   ar
    16    23    24   ar
    17    24    25   ar
    18    25    26   ar
    19    26    29    1
    20    29    30   ar
    21    30    31   ar
    22    31    32   ar
    23    32    33   ar
    24    26    27   ar
    25    27    28    1
    26    13    14   ar
    27    14    16    1
    28    16    17   ar
    29    17    18   ar
    30    18    19   ar
    31    19    20   ar
    32    14    15   ar
    33    15    10   ar
    34     8     3    1
    35    27    22   ar
    36    20    16   ar
    37    33    29   ar
@<TRIPOS>MOLECULE
*****
 33 37 0 0 0
SMALL
GASTEIGER

@<TRIPOS>ATOM
      1 C          63.5232   87.5075   13.3655 C.2     1  UNL1        0.2506
      2 O          63.6600   88.5422   12.2882 O.2     1  UNL1       -0.2699
      3 N          63.4108   87.9293   14.8005 N.am    1  UNL1       -0.2723
      4 C          63.2740   86.8945   15.8779 C.3     1  UNL1        0.1257
      5 C          63.1617   87.3163   17.3129 C.3     1  UNL1        0.1637
      6 O          63.1861   88.7728   17.6707 O.3     1  UNL1       -0.3502
      7 C          63.3228   89.8076   16.5934 C.3     1  UNL1        0.1622
      8 C          63.4352   89.3858   15.1583 C.3     1  UNL1        0.1097
      9 C          63.4256   81.6815   11.9344 C.3     1  UNL1        0.0311
     10 C          63.4500   83.1380   12.2922 C.ar    1  UNL1       -0.0203
     11 C          64.2950   83.6153   13.4359 C.ar    1  UNL1       -0.0040
     12 C          64.3194   85.0718   13.7937 C.ar    1  UNL1        0.0058
     13 C          63.4988   86.0510   13.0077 C.ar    1  UNL1        0.0729
     14 C          62.6538   85.5737   11.8640 C.ar    1  UNL1        0.1069
     15 C          62.6294   84.1172   11.5062 C.ar    1  UNL1        0.0168
     16 N          61.8332   86.5529   11.0780 N.ar    1  UNL1       -0.1477
     17 N          62.0859   86.9787    9.6620 N.ar    1  UNL1       -0.1447
     18 C          61.0247   87.9671    9.2788 C.ar    1  UNL1        0.1446
     19 C          60.1161   88.1522   10.4580 C.ar    1  UNL1        0.1446
     20 N          60.6158   87.2781   11.5699 N.ar    1  UNL1       -0.1447
     21 C          63.5720   90.4205   14.0810 C.3     1  UNL1        0.0510
     22 C          64.7690   91.3242   14.0566 C.ar    1  UNL1        0.0086
     23 C          65.4548   91.6953   15.3380 C.ar    1  UNL1       -0.0019
     24 C          66.6517   92.5989   15.3136 C.ar    1  UNL1        0.0014
     25 C          67.1630   93.1315   14.0079 C.ar    1  UNL1        0.0232
     26 C          66.4772   92.7604   12.7265 C.ar    1  UNL1        0.1299
     27 C          65.2802   91.8568   12.7509 C.ar    1  UNL1        0.1554
     28 F          64.5944   91.4857   11.4694 F       1  UNL1       -0.2029
     29 N          66.9884   93.2930   11.4207 N.ar    1  UNL1       -0.1456
     30 N          66.8020   94.6889   10.9042 N.ar    1  UNL1       -0.1446
     31 C          67.4742   94.7817    9.5665 C.ar    1  UNL1        0.1446
     32 C          68.0760   93.4432    9.2561 C.ar    1  UNL1        0.1446
     33 N          67.7757   92.5231   10.4021 N.ar    1  UNL1       -0.1446
@<TRIPOS>BOND
     1     9    10    1
     2    10    11   ar
     3    11    12   ar
     4    12    13   ar
     5    13     1    1
     6     1     2    2
     7     1     3   am
     8     3     4    1
     9     4     5    1
    10     5     6    1
    11     6     7    1
    12     7     8    1
    13     8    21    1
    14    21    22    1
    15    22    23   ar
    16    23    24   ar
    17    24    25   ar
    18    25    26   ar
    19    26    29    1
    20    29    30   ar
    21    30    31   ar
    22    31    32   ar
    23    32    33   ar
    24    26    27   ar
    25    27    28    1
    26    13    14   ar
    27    14    16    1
    28    16    17   ar
    29    17    18   ar
    30    18    19   ar
    31    19    20   ar
    32    14    15   ar
    33    15    10   ar
    34     8     3    1
    35    27    22   ar
    36    20    16   ar
    37    33    29   ar
@<TRIPOS>MOLECULE
*****
 33 37 0 0 0
SMALL
GASTEIGER

@<TRIPOS>ATOM
      1 C          62.7134   88.5808   11.5558 C.2     1  UNL1        0.2506
      2 O          62.6933   90.0799   11.5096 O.2     1  UNL1       -0.2699
      3 N          63.3482   87.8747   12.7169 N.am    1  UNL1       -0.2723
      4 C          63.3684   86.3755   12.7632 C.3     1  UNL1        0.1257
      5 C          64.0032   85.6694   13.9243 C.3     1  UNL1        0.1637
      6 O          64.6180   86.4624   15.0393 O.3     1  UNL1       -0.3502
      7 C          64.5979   87.9615   14.9931 C.3     1  UNL1        0.1622
      8 C          63.9630   88.6677   13.8319 C.3     1  UNL1        0.1097
      9 C          60.2542   85.4088    7.0959 C.3     1  UNL1        0.0311
     10 C          60.8690   86.2018    8.2109 C.ar    1  UNL1       -0.0203
     11 C          62.3180   86.0175    8.5520 C.ar    1  UNL1       -0.0040
     12 C          62.9328   86.8105    9.6670 C.ar    1  UNL1        0.0058
     13 C          62.0986   87.7878   10.4408 C.ar    1  UNL1        0.0729
     14 C          60.6495   87.9721   10.0998 C.ar    1  UNL1        0.1069
     15 C          60.0348   87.1791    8.9848 C.ar    1  UNL1        0.0168
     16 N          59.8153   88.9494   10.8737 N.ar    1  UNL1       -0.1477
     17 N          59.5924   90.3906   10.5224 N.ar    1  UNL1       -0.1447
     18 C          58.6968   90.9891   11.5663 C.ar    1  UNL1        0.1446
     19 C          58.3661   89.9177   12.5628 C.ar    1  UNL1        0.1446
     20 N          59.0574   88.6572   12.1347 N.ar    1  UNL1       -0.1447
     21 C          63.9430   90.1669   13.7857 C.3     1  UNL1        0.0510
     22 C          65.2314   90.9328   13.7287 C.ar    1  UNL1        0.0086
     23 C          66.1880   90.8784   14.8828 C.ar    1  UNL1       -0.0019
     24 C          67.4764   91.6443   14.8257 C.ar    1  UNL1        0.0014
     25 C          67.8083   92.4647   13.6146 C.ar    1  UNL1        0.0232
     26 C          66.8517   92.5191   12.4606 C.ar    1  UNL1        0.1299
     27 C          65.5632   91.7532   12.5176 C.ar    1  UNL1        0.1554
     28 F          64.6066   91.8076   11.3634 F       1  UNL1       -0.2029
     29 N          67.1835   93.3395   11.2494 N.ar    1  UNL1       -0.1456
     30 N          66.7976   94.7709   11.0213 N.ar    1  UNL1       -0.1446
     31 C          67.3351   95.1886    9.6846 C.ar    1  UNL1        0.1446
     32 C          68.0532   94.0152    9.0865 C.ar    1  UNL1        0.1446
     33 N          67.9595   92.8724   10.0537 N.ar    1  UNL1       -0.1446
@<TRIPOS>BOND
     1     9    10    1
     2    10    11   ar
     3    11    12   ar
     4    12    13   ar
     5    13     1    1
     6     1     2    2
     7     1     3   am
     8     3     4    1
     9     4     5    1
    10     5     6    1
    11     6     7    1
    12     7     8    1
    13     8    21    1
    14    21    22    1
    15    22    23   ar
    16    23    24   ar
    17    24    25   ar
    18    25    26   ar
    19    26    29    1
    20    29    30   ar
    21    30    31   ar
    22    31    32   ar
    23    32    33   ar
    24    26    27   ar
    25    27    28    1
    26    13    14   ar
    27    14    16    1
    28    16    17   ar
    29    17    18   ar
    30    18    19   ar
    31    19    20   ar
    32    14    15   ar
    33    15    10   ar
    34     8     3    1
    35    27    22   ar
    36    20    16   ar
    37    33    29   ar
@<TRIPOS>MOLECULE
*****
 33 37 0 0 0
SMALL
GASTEIGER

@<TRIPOS>ATOM
      1 C          63.0319   87.1253   12.3340 C.2     1  UNL1        0.2506
      2 O          63.6168   87.5335   13.6535 O.2     1  UNL1       -0.2699
      3 N          62.3550   88.1445   11.4663 N.am    1  UNL1       -0.2723
      4 C          61.7701   87.7364   10.1466 C.3     1  UNL1        0.1257
      5 C          61.0931   88.7556    9.2789 C.3     1  UNL1        0.1637
      6 O          61.0011   90.1829    9.7308 O.3     1  UNL1       -0.3502
      7 C          61.5860   90.5911   11.0503 C.3     1  UNL1        0.1622
      8 C          62.2630   89.5719   11.9181 C.3     1  UNL1        0.1097
      9 C          63.4001   81.4158   10.5266 C.3     1  UNL1        0.0311
     10 C          63.3080   82.8432   10.9784 C.ar    1  UNL1       -0.0203
     11 C          63.2574   83.9487    9.9659 C.ar    1  UNL1       -0.0040
     12 C          63.1654   85.3760   10.4177 C.ar    1  UNL1        0.0058
     13 C          63.1239   85.6979   11.8821 C.ar    1  UNL1        0.0729
     14 C          63.1745   84.5925   12.8947 C.ar    1  UNL1        0.1069
     15 C          63.2666   83.1651   12.4429 C.ar    1  UNL1        0.0168
     16 N          63.1331   84.9144   14.3592 N.ar    1  UNL1       -0.1477
     17 N          61.9183   84.8685   15.2380 N.ar    1  UNL1       -0.1447
     18 C          62.3335   85.2644   16.6240 C.ar    1  UNL1        0.1446
     19 C          63.8050   85.5550   16.6017 C.ar    1  UNL1        0.1446
     20 N          64.2991   85.3387   15.2021 N.ar    1  UNL1       -0.1447
     21 C          62.8478   89.9800   13.2377 C.3     1  UNL1        0.0510
     22 C          64.1746   90.6782   13.2862 C.ar    1  UNL1        0.0086
     23 C          65.0878   90.4726   14.4583 C.ar    1  UNL1       -0.0019
     24 C          66.4145   91.1708   14.5068 C.ar    1  UNL1        0.0014
     25 C          66.8281   92.0744   13.3833 C.ar    1  UNL1        0.0232
     26 C          65.9149   92.2799   12.2112 C.ar    1  UNL1        0.1299
     27 C          64.5881   91.5818   12.1627 C.ar    1  UNL1        0.1554
     28 F          63.6749   91.7874   10.9905 F       1  UNL1       -0.2029
     29 N          66.3284   93.1836   11.0876 N.ar    1  UNL1       -0.1456
     30 N          67.4882   92.9653   10.1618 N.ar    1  UNL1       -0.1446
     31 C          67.5313   94.1110    9.1946 C.ar    1  UNL1        0.1446
     32 C          66.3981   95.0375    9.5227 C.ar    1  UNL1        0.1446
     33 N          65.6547   94.4643   10.6927 N.ar    1  UNL1       -0.1446
@<TRIPOS>BOND
     1     9    10    1
     2    10    11   ar
     3    11    12   ar
     4    12    13   ar
     5    13     1    1
     6     1     2    2
     7     1     3   am
     8     3     4    1
     9     4     5    1
    10     5     6    1
    11     6     7    1
    12     7     8    1
    13     8    21    1
    14    21    22    1
    15    22    23   ar
    16    23    24   ar
    17    24    25   ar
    18    25    26   ar
    19    26    29    1
    20    29    30   ar
    21    30    31   ar
    22    31    32   ar
    23    32    33   ar
    24    26    27   ar
    25    27    28    1
    26    13    14   ar
    27    14    16    1
    28    16    17   ar
    29    17    18   ar
    30    18    19   ar
    31    19    20   ar
    32    14    15   ar
    33    15    10   ar
    34     8     3    1
    35    27    22   ar
    36    20    16   ar
    37    33    29   ar
