@<TRIPOS>MOLECULE
*****
 38 43 0 0 0
SMALL
GASTEIGER

@<TRIPOS>ATOM
      1 C          63.7440   84.1286   13.8858 C.2     1  UNL1        0.1558
      2 N          64.4865   84.6118   15.0962 N.2     1  UNL1       -0.2402
      3 C          64.5127   86.1110   15.0560 C.2     1  UNL1        0.0929
      4 C          63.7864   86.5544   13.8207 C.2     1  UNL1        0.0093
      5 C          63.3113   85.3292   13.0974 C.3     1  UNL1        0.1374
      6 N          62.5462   85.4650   11.8145 N.pl3   1  UNL1       -0.3295
      7 C          62.2560   86.8261   11.2547 C.2     1  UNL1        0.0215
      8 C          62.7311   88.0514   11.9780 C.2     1  UNL1        0.0322
      9 C          62.4410   89.4124   11.4183 C.2     1  UNL1        0.1707
     10 O          62.9161   90.6377   12.1416 O.2     1  UNL1       -0.2916
     11 C          61.6758   89.5483   10.1354 C.3     1  UNL1        0.0693
     12 C          61.2007   88.3230    9.4121 C.3     1  UNL1        0.0141
     13 C          61.4908   86.9620    9.9718 C.3     1  UNL1        0.0411
     14 C          63.4963   87.9155   13.2610 C.3     1  UNL1        0.1049
     15 H          62.2343   84.6608   11.3398 H       1  UNL1        0.1471
     16 C          63.9714   89.1407   13.9843 C.ar    1  UNL1        0.1312
     17 C          63.4967   89.6116   15.3270 C.ar    1  UNL1        0.0373
     18 C          64.2365   90.8721   15.6644 C.ar    1  UNL1        0.0472
     19 C          65.1686   91.1802   14.5302 C.ar    1  UNL1        0.1774
     20 O          65.0047   90.1101   13.4919 O.2     1  UNL1       -0.4506
     21 S          66.1008   92.3525   14.4487 S.3     1  UNL1       -0.0117
     22 C          66.4065   92.9765   13.1194 C.2     1  UNL1        0.1967
     23 N          67.0623   92.2947   11.9553 N.2     1  UNL1       -0.2173
     24 C          67.1713   93.2888   10.8372 C.2     1  UNL1        0.1270
     25 C          67.7303   93.1811    9.4494 C.2     1  UNL1        0.1880
     26 F          68.3187   91.8850    8.9763 F       1  UNL1       -0.2001
     27 C          67.7009   94.3696    8.5348 C.2     1  UNL1        0.1924
     28 F          68.2599   94.2620    7.1470 F       1  UNL1       -0.1997
     29 C          67.1125   95.6657    9.0079 C.2     1  UNL1        0.1532
     30 F          67.0831   96.8542    8.0933 F       1  UNL1       -0.2060
     31 C          66.5535   95.7734   10.3957 C.3     1  UNL1        0.1063
     32 C          66.5829   94.5849   11.3103 C.2     1  UNL1        0.0878
     33 N          66.1103   94.3919   12.7208 N.2     1  UNL1       -0.2233
     34 C          63.4804   82.6963   13.5266 C.2     1  UNL1        0.3569
     35 O          63.8439   81.6031   14.4872 O.2     1  UNL1       -0.2435
     36 O          62.8534   82.3571   12.2069 O.3     1  UNL1       -0.4446
     37 C          64.2324   83.0343   10.1117 C.3     1  UNL1        0.0513
     38 C          63.7177   81.9759   11.0416 C.3     1  UNL1        0.2089
@<TRIPOS>BOND
     1    37    38    1
     2    38    36    1
     3    36    34    1
     4    34    35    2
     5    34     1    1
     6     1     2    2
     7     2     3    1
     8     3     4    2
     9     4     5    1
    10     5     6    1
    11     6     7    1
    12     7     8    2
    13     8     9    1
    14     9    10    2
    15     9    11    1
    16    11    12    1
    17    12    13    1
    18     8    14    1
    19    14    16    1
    20    16    17   ar
    21    17    18   ar
    22    18    19   ar
    23    19    21    1
    24    21    22    1
    25    22    23    2
    26    23    24    1
    27    24    25    2
    28    25    26    1
    29    25    27    1
    30    27    28    1
    31    27    29    2
    32    29    30    1
    33    29    31    1
    34    31    32    1
    35    32    33    2
    36    19    20   ar
    37     5     1    1
    38    13     7    1
    39    20    16   ar
    40    14     4    1
    41    33    22    1
    42    32    24    1
    43     6    15    1
@<TRIPOS>MOLECULE
*****
 38 43 0 0 0
SMALL
GASTEIGER

@<TRIPOS>ATOM
      1 C          66.0602   93.4687   12.2505 C.2     1  UNL1        0.1558
      2 N          66.5747   93.1564   13.6244 N.2     1  UNL1       -0.2402
      3 C          65.8722   91.9247   14.1135 C.2     1  UNL1        0.0929
      4 C          64.9235   91.4757   13.0419 C.2     1  UNL1        0.0093
      5 C          65.0397   92.4299   11.8905 C.3     1  UNL1        0.1374
      6 N          64.2012   92.2297   10.6629 N.pl3   1  UNL1       -0.3295
      7 C          63.2465   91.0752   10.5868 C.2     1  UNL1        0.0215
      8 C          63.1304   90.1209   11.7383 C.2     1  UNL1        0.0322
      9 C          62.1758   88.9664   11.6623 C.2     1  UNL1        0.1707
     10 O          62.0596   88.0121   12.8137 O.2     1  UNL1       -0.2916
     11 C          61.3373   88.7662   10.4347 C.3     1  UNL1        0.0693
     12 C          61.4534   89.7205    9.2833 C.3     1  UNL1        0.0141
     13 C          62.4081   90.8750    9.3593 C.3     1  UNL1        0.0411
     14 C          63.9689   90.3212   12.9659 C.3     1  UNL1        0.1049
     15 H          64.2774   92.8560    9.9072 H       1  UNL1        0.1471
     16 C          63.8528   89.3669   14.1173 C.ar    1  UNL1        0.1312
     17 C          63.3014   89.6866   15.4752 C.ar    1  UNL1        0.0373
     18 C          63.3755   88.4426   16.3102 C.ar    1  UNL1        0.0472
     19 C          63.9726   87.3542   15.4684 C.ar    1  UNL1        0.1774
     20 O          64.2675   87.9254   14.1131 O.2     1  UNL1       -0.4506
     21 S          64.2296   85.9424   15.9051 S.3     1  UNL1       -0.0117
     22 C          63.9423   84.8044   14.9712 C.2     1  UNL1        0.1967
     23 N          64.0841   84.8317   13.4782 N.2     1  UNL1       -0.2173
     24 C          63.6921   83.4833   12.9505 C.2     1  UNL1        0.1270
     25 C          63.6354   82.9281   11.5582 C.2     1  UNL1        0.1880
     26 F          64.0195   83.7888   10.3913 F       1  UNL1       -0.2001
     27 C          63.1945   81.5122   11.3329 C.2     1  UNL1        0.1924
     28 F          63.1377   80.9569    9.9406 F       1  UNL1       -0.1997
     29 C          62.8104   80.6516   12.4998 C.2     1  UNL1        0.1532
     30 F          62.3695   79.2357   12.2744 F       1  UNL1       -0.2060
     31 C          62.8671   81.2068   13.8921 C.3     1  UNL1        0.1063
     32 C          63.3080   82.6227   14.1174 C.2     1  UNL1        0.0878
     33 N          63.4626   83.4392   15.3663 N.2     1  UNL1       -0.2233
     34 C          66.4905   94.6179   11.3879 C.2     1  UNL1        0.3569
     35 O          65.7677   95.9296   11.4706 O.2     1  UNL1       -0.2435
     36 O          67.6438   94.4555   10.4426 O.3     1  UNL1       -0.4446
     37 C          68.5133   92.2868    9.3066 C.3     1  UNL1        0.0513
     38 C          67.5672   93.4504    9.3317 C.3     1  UNL1        0.2089
@<TRIPOS>BOND
     1    37    38    1
     2    38    36    1
     3    36    34    1
     4    34    35    2
     5    34     1    1
     6     1     2    2
     7     2     3    1
     8     3     4    2
     9     4     5    1
    10     5     6    1
    11     6     7    1
    12     7     8    2
    13     8     9    1
    14     9    10    2
    15     9    11    1
    16    11    12    1
    17    12    13    1
    18     8    14    1
    19    14    16    1
    20    16    17   ar
    21    17    18   ar
    22    18    19   ar
    23    19    21    1
    24    21    22    1
    25    22    23    2
    26    23    24    1
    27    24    25    2
    28    25    26    1
    29    25    27    1
    30    27    28    1
    31    27    29    2
    32    29    30    1
    33    29    31    1
    34    31    32    1
    35    32    33    2
    36    19    20   ar
    37     5     1    1
    38    13     7    1
    39    20    16   ar
    40    14     4    1
    41    33    22    1
    42    32    24    1
    43     6    15    1
@<TRIPOS>MOLECULE
*****
 38 43 0 0 0
SMALL
GASTEIGER

@<TRIPOS>ATOM
      1 C          64.0205   83.9500   13.7848 C.2     1  UNL1        0.1558
      2 N          64.7758   84.4495   14.9806 N.2     1  UNL1       -0.2402
      3 C          64.7070   85.9479   14.9795 C.2     1  UNL1        0.0929
      4 C          63.9092   86.3745   13.7831 C.2     1  UNL1        0.0093
      5 C          63.4848   85.1397   13.0447 C.3     1  UNL1        0.1374
      6 N          62.6655   85.2582   11.7938 N.pl3   1  UNL1       -0.3295
      7 C          62.2705   86.6115   11.2813 C.2     1  UNL1        0.0215
      8 C          62.6949   87.8463   12.0198 C.2     1  UNL1        0.0322
      9 C          62.2999   89.1996   11.5073 C.2     1  UNL1        0.1707
     10 O          62.7243   90.4343   12.2458 O.2     1  UNL1       -0.2916
     11 C          61.4806   89.3181   10.2565 C.3     1  UNL1        0.0693
     12 C          61.0563   88.0833    9.5181 C.3     1  UNL1        0.0141
     13 C          61.4513   86.7300   10.0305 C.3     1  UNL1        0.0411
     14 C          63.5142   87.7278   13.2707 C.3     1  UNL1        0.1049
     15 H          62.3870   84.4478   11.3092 H       1  UNL1        0.1471
     16 C          63.9385   88.9625   14.0091 C.ar    1  UNL1        0.1312
     17 C          63.4398   89.4006   15.3542 C.ar    1  UNL1        0.0373
     18 C          64.1291   90.6848   15.7085 C.ar    1  UNL1        0.0472
     19 C          65.0539   91.0405   14.5824 C.ar    1  UNL1        0.1774
     20 O          64.9361   89.9761   13.5321 O.2     1  UNL1       -0.4506
     21 S          65.9408   92.2485   14.5178 S.3     1  UNL1       -0.0117
     22 C          66.2816   92.8586   13.1906 C.2     1  UNL1        0.1967
     23 N          65.9167   94.2406   12.7358 N.2     1  UNL1       -0.2173
     24 C          66.4568   94.4300   11.3492 C.2     1  UNL1        0.1270
     25 C          66.4026   95.5909   10.4008 C.2     1  UNL1        0.1880
     26 F          65.7039   96.8559   10.8029 F       1  UNL1       -0.2001
     27 C          67.0471   95.4868    9.0503 C.2     1  UNL1        0.1924
     28 F          66.9929   96.6476    8.1020 F       1  UNL1       -0.1997
     29 C          67.7457   94.2218    8.6483 C.2     1  UNL1        0.1532
     30 F          68.3903   94.1177    7.2978 F       1  UNL1       -0.2060
     31 C          67.8000   93.0609    9.5966 C.3     1  UNL1        0.1063
     32 C          67.1555   93.1650   10.9471 C.2     1  UNL1        0.0878
     33 N          67.0472   92.1939   12.0852 N.2     1  UNL1       -0.2233
     34 C          63.8335   82.5131   13.3971 C.2     1  UNL1        0.3569
     35 O          64.3754   82.0120   12.0912 O.2     1  UNL1       -0.2435
     36 O          63.1047   81.5772   14.3152 O.3     1  UNL1       -0.4446
     37 C          60.9914   80.1310   13.8763 C.3     1  UNL1        0.0513
     38 C          61.6126   81.4505   14.2270 C.3     1  UNL1        0.2089
@<TRIPOS>BOND
     1    37    38    1
     2    38    36    1
     3    36    34    1
     4    34    35    2
     5    34     1    1
     6     1     2    2
     7     2     3    1
     8     3     4    2
     9     4     5    1
    10     5     6    1
    11     6     7    1
    12     7     8    2
    13     8     9    1
    14     9    10    2
    15     9    11    1
    16    11    12    1
    17    12    13    1
    18     8    14    1
    19    14    16    1
    20    16    17   ar
    21    17    18   ar
    22    18    19   ar
    23    19    21    1
    24    21    22    1
    25    22    23    2
    26    23    24    1
    27    24    25    2
    28    25    26    1
    29    25    27    1
    30    27    28    1
    31    27    29    2
    32    29    30    1
    33    29    31    1
    34    31    32    1
    35    32    33    2
    36    19    20   ar
    37     5     1    1
    38    13     7    1
    39    20    16   ar
    40    14     4    1
    41    33    22    1
    42    32    24    1
    43     6    15    1
@<TRIPOS>MOLECULE
*****
 38 43 0 0 0
SMALL
GASTEIGER

@<TRIPOS>ATOM
      1 C          60.7236   87.7632    9.6374 C.2     1  UNL1        0.1558
      2 N          60.7652   89.2499    9.8327 N.2     1  UNL1       -0.2402
      3 C          61.6461   89.5379   11.0121 C.2     1  UNL1        0.0929
      4 C          62.1488   88.2293   11.5458 C.2     1  UNL1        0.0093
      5 C          61.5787   87.1325   10.6962 C.3     1  UNL1        0.1374
      6 N          61.9117   85.7011   10.9964 N.pl3   1  UNL1       -0.3295
      7 C          62.8151   85.3665   12.1463 C.2     1  UNL1        0.0215
      8 C          63.3852   86.4633   12.9959 C.2     1  UNL1        0.0322
      9 C          64.2885   86.1288   14.1457 C.2     1  UNL1        0.1707
     10 O          64.8587   87.2256   14.9953 O.2     1  UNL1       -0.2916
     11 C          64.6216   84.6974   14.4459 C.3     1  UNL1        0.0693
     12 C          64.0514   83.6006   13.5963 C.3     1  UNL1        0.0141
     13 C          63.1482   83.9351   12.4465 C.3     1  UNL1        0.0411
     14 C          63.0521   87.8947   12.6956 C.3     1  UNL1        0.1049
     15 H          61.5375   84.9812   10.4388 H       1  UNL1        0.1471
     16 C          63.6223   88.9916   13.5453 C.ar    1  UNL1        0.1312
     17 C          63.2548   89.2850   14.9696 C.ar    1  UNL1        0.0373
     18 C          64.0655   90.4624   15.4244 C.ar    1  UNL1        0.0472
     19 C          64.9340   90.8965   14.2810 C.ar    1  UNL1        0.1774
     20 O          64.6600   89.9876   13.1197 O.2     1  UNL1       -0.4506
     21 S          65.9057   92.0391   14.2963 S.3     1  UNL1       -0.0117
     22 C          66.2734   92.7281   13.0158 C.2     1  UNL1        0.1967
     23 N          66.9704   92.1002   11.8453 N.2     1  UNL1       -0.2173
     24 C          67.1364   93.1501   10.7868 C.2     1  UNL1        0.1270
     25 C          67.7520   93.1084    9.4197 C.2     1  UNL1        0.1880
     26 F          68.3464   91.8316    8.9033 F       1  UNL1       -0.2001
     27 C          67.7733   94.3436    8.5688 C.2     1  UNL1        0.1924
     28 F          68.3889   94.3019    7.2016 F       1  UNL1       -0.1997
     29 C          67.1789   95.6203    9.0851 C.2     1  UNL1        0.1532
     30 F          67.2002   96.8554    8.2342 F       1  UNL1       -0.2060
     31 C          66.5633   95.6620   10.4523 C.3     1  UNL1        0.1063
     32 C          66.5420   94.4269   11.3032 C.2     1  UNL1        0.0878
     33 N          66.0087   94.1660   12.6807 N.2     1  UNL1       -0.2233
     34 C          59.9607   87.0351    8.5707 C.2     1  UNL1        0.3569
     35 O          58.8335   87.7190    7.8554 O.2     1  UNL1       -0.2435
     36 O          60.3251   85.6231    8.2193 O.3     1  UNL1       -0.4446
     37 C          62.7484   84.9456    7.5726 C.3     1  UNL1        0.0513
     38 C          61.3629   85.3552    7.1699 C.3     1  UNL1        0.2089
@<TRIPOS>BOND
     1    37    38    1
     2    38    36    1
     3    36    34    1
     4    34    35    2
     5    34     1    1
     6     1     2    2
     7     2     3    1
     8     3     4    2
     9     4     5    1
    10     5     6    1
    11     6     7    1
    12     7     8    2
    13     8     9    1
    14     9    10    2
    15     9    11    1
    16    11    12    1
    17    12    13    1
    18     8    14    1
    19    14    16    1
    20    16    17   ar
    21    17    18   ar
    22    18    19   ar
    23    19    21    1
    24    21    22    1
    25    22    23    2
    26    23    24    1
    27    24    25    2
    28    25    26    1
    29    25    27    1
    30    27    28    1
    31    27    29    2
    32    29    30    1
    33    29    31    1
    34    31    32    1
    35    32    33    2
    36    19    20   ar
    37     5     1    1
    38    13     7    1
    39    20    16   ar
    40    14     4    1
    41    33    22    1
    42    32    24    1
    43     6    15    1
