@<TRIPOS>MOLECULE
*****
 30 34 0 0 0
SMALL
GASTEIGER

@<TRIPOS>ATOM
      1 C          61.6997   87.5934    9.9350 C.2     1  UNL1        0.0875
      2 C          60.5750   87.6265    8.9431 C.2     1  UNL1        0.0944
      3 BR         60.0348   86.3459    8.3788 Br      1  UNL1       -0.0439
      4 C          59.9906   88.9400    8.5154 C.2     1  UNL1        0.2434
      5 N          60.5308   90.2206    9.0797 N.2     1  UNL1       -0.0304
      6 C          61.6555   90.1875   10.0716 C.2     1  UNL1        0.4031
      7 N          62.3891   91.2784   10.7939 N.2     1  UNL1        0.0326
      8 C          63.4270   90.6390   11.6680 C.cat   1  UNL1        0.4596
      9 N          63.3348   89.1530   11.4859 N.2     1  UNL1       -0.0725
     10 C          62.2400   88.8739   10.4992 C.3     1  UNL1        0.3273
     11 N          64.3883   91.3592   12.5665 N.pl3   1  UNL1       -0.1832
     12 C          65.2091   92.4945   12.0304 C.3     1  UNL1        0.1857
     13 C          66.1704   93.2146   12.9289 C.3     1  UNL1        0.1133
     14 N          66.3108   92.7996   14.3635 N.3     1  UNL1       -0.2660
     15 C          67.2721   93.5198   15.2620 C.3     1  UNL1        0.0898
     16 C          65.4900   91.6643   14.8996 C.3     1  UNL1        0.1133
     17 C          64.5287   90.9442   14.0010 C.3     1  UNL1        0.1857
     18 N          63.4531   83.6526   11.2178 N.3     1  UNL1       -0.2646
     19 C          63.5128   84.0667    9.7773 C.3     1  UNL1        0.0941
     20 C          62.9283   85.3802    9.3497 C.3     1  UNL1        0.1080
     21 N          62.2842   86.2798   10.3626 N.pl3   1  UNL1       -0.3043
     22 C          62.2244   85.8658   11.8031 C.3     1  UNL1        0.1080
     23 C          62.8089   84.5521   12.2307 C.3     1  UNL1        0.0941
     24 C          64.0375   82.3390   11.6454 C.3     1  UNL1        0.1222
     25 C          60.2289   79.8406   14.3164 C.3     1  UNL1        0.0754
     26 C          61.5743   80.3477   13.8890 C.ar    1  UNL1        0.1546
     27 C          61.8477   81.2412   12.7155 C.ar    1  UNL1        0.0550
     28 C          63.3249   81.4961   12.6613 C.ar    1  UNL1        0.1165
     29 N          63.9644   80.7602   13.8012 N.ar    1  UNL1       -0.0803
     30 O          62.8825   80.0505   14.5599 O.2     1  UNL1       -0.3580
@<TRIPOS>BOND
     1    25    26    1
     2    26    27   ar
     3    27    28   ar
     4    28    24    1
     5    24    18    1
     6    18    19    1
     7    19    20    1
     8    20    21    1
     9    21     1    1
    10     1     2    2
    11     2     3    1
    12     2     4    1
    13     4     5    2
    14     5     6    1
    15     6     7    2
    16     7     8    1
    17     8    11    1
    18    11    12    1
    19    12    13    1
    20    13    14    1
    21    14    15    1
    22    14    16    1
    23    16    17    1
    24     8     9    2
    25     9    10    1
    26    21    22    1
    27    22    23    1
    28    28    29   ar
    29    29    30   ar
    30    30    26   ar
    31    23    18    1
    32    10     1    1
    33    10     6    1
    34    17    11    1
@<TRIPOS>MOLECULE
*****
 30 34 0 0 0
SMALL
GASTEIGER

@<TRIPOS>ATOM
      1 C          63.9055   90.6909   13.8875 C.2     1  UNL1        0.0875
      2 C          63.9194   90.4223   15.3632 C.2     1  UNL1        0.0944
      3 BR         63.1381   89.2707   15.9232 Br      1  UNL1       -0.0439
      4 C          64.7143   91.3052   16.2787 C.2     1  UNL1        0.2434
      5 N          65.4956   92.4568   15.7186 N.2     1  UNL1       -0.0304
      6 C          65.4817   92.7254   14.2429 C.2     1  UNL1        0.4031
      7 N          66.1488   93.7780   13.4081 N.2     1  UNL1        0.0326
      8 C          65.7660   93.5456   11.9765 C.cat   1  UNL1        0.4596
      9 N          64.8624   92.3493   11.9266 N.2     1  UNL1       -0.0725
     10 C          64.6867   91.8424   13.3274 C.3     1  UNL1        0.3273
     11 N          66.2090   94.3654   10.8011 N.pl3   1  UNL1       -0.1832
     12 C          65.7752   95.7961   10.6784 C.3     1  UNL1        0.1857
     13 C          66.2183   96.6159    9.5029 C.3     1  UNL1        0.1133
     14 N          67.0951   96.0052    8.4503 N.3     1  UNL1       -0.2660
     15 C          67.5382   96.8250    7.2749 C.3     1  UNL1        0.0898
     16 C          67.5289   94.5745    8.5730 C.3     1  UNL1        0.1133
     17 C          67.0859   93.7547    9.7484 C.3     1  UNL1        0.1857
     18 N          61.5204   88.0418   11.1407 N.3     1  UNL1       -0.2646
     19 C          62.7261   87.4973   11.8478 C.3     1  UNL1        0.0941
     20 C          63.5211   88.3803   12.7633 C.3     1  UNL1        0.1080
     21 N          63.1105   89.8079   12.9719 N.pl3   1  UNL1       -0.3043
     22 C          61.9048   90.3525   12.2649 C.3     1  UNL1        0.1080
     23 C          61.1098   89.4694   11.3493 C.3     1  UNL1        0.0941
     24 C          60.7255   87.1589   10.2252 C.3     1  UNL1        0.1222
     25 C          61.8519   84.4443    5.8384 C.3     1  UNL1        0.0754
     26 C          61.9461   85.0363    7.2135 C.ar    1  UNL1        0.1546
     27 C          60.9291   85.9292    7.8605 C.ar    1  UNL1        0.0550
     28 C          61.4283   86.2840    9.2298 C.ar    1  UNL1        0.1165
     29 N          62.7537   85.6105    9.4290 N.ar    1  UNL1       -0.0803
     30 O          63.0737   84.8393    8.1828 O.2     1  UNL1       -0.3580
@<TRIPOS>BOND
     1    25    26    1
     2    26    27   ar
     3    27    28   ar
     4    28    24    1
     5    24    18    1
     6    18    19    1
     7    19    20    1
     8    20    21    1
     9    21     1    1
    10     1     2    2
    11     2     3    1
    12     2     4    1
    13     4     5    2
    14     5     6    1
    15     6     7    2
    16     7     8    1
    17     8    11    1
    18    11    12    1
    19    12    13    1
    20    13    14    1
    21    14    15    1
    22    14    16    1
    23    16    17    1
    24     8     9    2
    25     9    10    1
    26    21    22    1
    27    22    23    1
    28    28    29   ar
    29    29    30   ar
    30    30    26   ar
    31    23    18    1
    32    10     1    1
    33    10     6    1
    34    17    11    1
@<TRIPOS>MOLECULE
*****
 30 34 0 0 0
SMALL
GASTEIGER

@<TRIPOS>ATOM
      1 C          64.1058   90.8308   14.2877 C.2     1  UNL1        0.0875
      2 C          64.0170   90.6561   15.7748 C.2     1  UNL1        0.0944
      3 BR         63.2616   89.4946   16.3497 Br      1  UNL1       -0.0439
      4 C          64.6836   91.6427   16.6870 C.2     1  UNL1        0.2434
      5 N          65.4390   92.8042   16.1121 N.2     1  UNL1       -0.0304
      6 C          65.5277   92.9789   14.6249 C.2     1  UNL1        0.4031
      7 N          66.1972   94.0175   13.7746 N.2     1  UNL1        0.0326
      8 C          65.9444   93.6727   12.3368 C.cat   1  UNL1        0.4596
      9 N          65.1187   92.4210   12.2986 N.2     1  UNL1       -0.0725
     10 C          64.8611   91.9922   13.7128 C.3     1  UNL1        0.3273
     11 N          66.4317   94.4441   11.1463 N.pl3   1  UNL1       -0.1832
     12 C          67.0543   93.7220    9.9883 C.3     1  UNL1        0.1857
     13 C          67.5416   94.4935    8.7977 C.3     1  UNL1        0.1133
     14 N          67.4064   95.9870    8.7652 N.3     1  UNL1       -0.2660
     15 C          67.8938   96.7584    7.5746 C.3     1  UNL1        0.0898
     16 C          66.7839   96.7091    9.9232 C.3     1  UNL1        0.1133
     17 C          66.2965   95.9376   11.1137 C.3     1  UNL1        0.1857
     18 N          62.1059   87.8708   11.5511 N.3     1  UNL1       -0.2646
     19 C          61.6476   89.2989   11.5747 C.3     1  UNL1        0.0941
     20 C          62.3141   90.2855   12.4869 C.3     1  UNL1        0.1080
     21 N          63.4392   89.8441   13.3755 N.pl3   1  UNL1       -0.3043
     22 C          63.8976   88.4161   13.3519 C.3     1  UNL1        0.1080
     23 C          63.2309   87.4294   12.4397 C.3     1  UNL1        0.0941
     24 C          61.4393   86.8842   10.6389 C.3     1  UNL1        0.1222
     25 C          64.1137   82.3448   10.2874 C.3     1  UNL1        0.0754
     26 C          63.4474   83.6396    9.9274 C.ar    1  UNL1        0.1546
     27 C          62.7257   84.5528   10.8736 C.ar    1  UNL1        0.0550
     28 C          62.2182   85.7261   10.0890 C.ar    1  UNL1        0.1165
     29 N          62.6262   85.5381    8.6578 N.ar    1  UNL1       -0.0803
     30 O          63.3859   84.2486    8.5579 O.2     1  UNL1       -0.3580
@<TRIPOS>BOND
     1    25    26    1
     2    26    27   ar
     3    27    28   ar
     4    28    24    1
     5    24    18    1
     6    18    19    1
     7    19    20    1
     8    20    21    1
     9    21     1    1
    10     1     2    2
    11     2     3    1
    12     2     4    1
    13     4     5    2
    14     5     6    1
    15     6     7    2
    16     7     8    1
    17     8    11    1
    18    11    12    1
    19    12    13    1
    20    13    14    1
    21    14    15    1
    22    14    16    1
    23    16    17    1
    24     8     9    2
    25     9    10    1
    26    21    22    1
    27    22    23    1
    28    28    29   ar
    29    29    30   ar
    30    30    26   ar
    31    23    18    1
    32    10     1    1
    33    10     6    1
    34    17    11    1
@<TRIPOS>MOLECULE
*****
 30 34 0 0 0
SMALL
GASTEIGER

@<TRIPOS>ATOM
      1 C          62.5219   88.6840   11.5487 C.2     1  UNL1        0.0875
      2 C          63.1380   89.9512   12.0630 C.2     1  UNL1        0.0944
      3 BR         62.8485   91.2561   11.3821 Br      1  UNL1       -0.0439
      4 C          64.0437   89.9136   13.2581 C.2     1  UNL1        0.2434
      5 N          64.3332   88.6088   13.9390 N.2     1  UNL1       -0.0304
      6 C          63.7170   87.3416   13.4247 C.2     1  UNL1        0.4031
      7 N          63.8175   85.9176   13.8856 N.2     1  UNL1        0.0326
      8 C          62.9740   85.0753   12.9752 C.cat   1  UNL1        0.4596
      9 N          62.3521   85.9785   11.9518 N.2     1  UNL1       -0.0725
     10 C          62.8114   87.3792   12.2296 C.3     1  UNL1        0.3273
     11 N          62.7854   83.5903   13.0714 N.pl3   1  UNL1       -0.1832
     12 C          62.3006   82.9772   14.3516 C.3     1  UNL1        0.1857
     13 C          62.1120   81.4921   14.4477 C.3     1  UNL1        0.1133
     14 N          62.4081   80.6202   13.2636 N.3     1  UNL1       -0.2660
     15 C          62.2195   79.1353   13.3598 C.3     1  UNL1        0.0898
     16 C          62.8929   81.2334   11.9834 C.3     1  UNL1        0.1133
     17 C          63.0815   82.7184   11.8873 C.3     1  UNL1        0.1857
     18 N          59.8048   88.7969    7.9633 N.3     1  UNL1       -0.2646
     19 C          60.7136   87.6231    8.1791 C.3     1  UNL1        0.0941
     20 C          61.6192   87.5855    9.3742 C.3     1  UNL1        0.1080
     21 N          61.6162   88.7217   10.3536 N.pl3   1  UNL1       -0.3043
     22 C          60.7075   89.8954   10.1379 C.3     1  UNL1        0.1080
     23 C          59.8018   89.9330    8.9427 C.3     1  UNL1        0.0941
     24 C          58.8992   88.8345    6.7682 C.3     1  UNL1        0.1222
     25 C          60.2188   92.8428    3.5943 C.3     1  UNL1        0.0754
     26 C          59.4260   91.9158    4.4673 C.ar    1  UNL1        0.1546
     27 C          59.9526   90.6980    5.1673 C.ar    1  UNL1        0.0550
     28 C          58.8195   90.0734    5.9262 C.ar    1  UNL1        0.1165
     29 N          57.5927   90.9050    5.6953 N.ar    1  UNL1       -0.0803
     30 O          57.9676   92.0437    4.7937 O.2     1  UNL1       -0.3580
@<TRIPOS>BOND
     1    25    26    1
     2    26    27   ar
     3    27    28   ar
     4    28    24    1
     5    24    18    1
     6    18    19    1
     7    19    20    1
     8    20    21    1
     9    21     1    1
    10     1     2    2
    11     2     3    1
    12     2     4    1
    13     4     5    2
    14     5     6    1
    15     6     7    2
    16     7     8    1
    17     8    11    1
    18    11    12    1
    19    12    13    1
    20    13    14    1
    21    14    15    1
    22    14    16    1
    23    16    17    1
    24     8     9    2
    25     9    10    1
    26    21    22    1
    27    22    23    1
    28    28    29   ar
    29    29    30   ar
    30    30    26   ar
    31    23    18    1
    32    10     1    1
    33    10     6    1
    34    17    11    1
@<TRIPOS>MOLECULE
*****
 30 34 0 0 0
SMALL
GASTEIGER

@<TRIPOS>ATOM
      1 C          64.0568   89.9511   14.7441 C.2     1  UNL1        0.0875
      2 C          63.7100   90.0223   16.2017 C.2     1  UNL1        0.0944
      3 BR         63.0649   88.8486   16.8773 Br      1  UNL1       -0.0439
      4 C          64.0082   91.2670   16.9836 C.2     1  UNL1        0.2434
      5 N          64.6533   92.4407   16.3080 N.2     1  UNL1       -0.0304
      6 C          65.0001   92.3695   14.8504 C.2     1  UNL1        0.4031
      7 N          65.6369   93.3596   13.9208 N.2     1  UNL1        0.0326
      8 C          65.7322   92.7266   12.5642 C.cat   1  UNL1        0.4596
      9 N          65.1544   91.3454   12.6555 N.2     1  UNL1       -0.0725
     10 C          64.7019   91.1247   14.0685 C.3     1  UNL1        0.3273
     11 N          66.3049   93.3631   11.3326 N.pl3   1  UNL1       -0.1832
     12 C          65.8994   94.7558   10.9503 C.3     1  UNL1        0.1857
     13 C          66.4721   95.3922    9.7186 C.3     1  UNL1        0.1133
     14 N          67.4503   94.6361    8.8692 N.3     1  UNL1       -0.2660
     15 C          68.0230   95.2726    7.6376 C.3     1  UNL1        0.0898
     16 C          67.8558   93.2435    9.2515 C.3     1  UNL1        0.1133
     17 C          67.2831   92.6070   10.4832 C.3     1  UNL1        0.1857
     18 N          63.1620   86.2167   12.3981 N.3     1  UNL1       -0.2646
     19 C          62.6994   87.5503   11.8905 C.3     1  UNL1        0.0941
     20 C          62.9976   88.7950   12.6724 C.3     1  UNL1        0.1080
     21 N          63.7586   88.7063   13.9621 N.pl3   1  UNL1       -0.3043
     22 C          64.2212   87.3728   14.4697 C.3     1  UNL1        0.1080
     23 C          63.9230   86.1280   13.6877 C.3     1  UNL1        0.0941
     24 C          62.8638   84.9719   11.6161 C.3     1  UNL1        0.1222
     25 C          62.5583   79.7947   12.6086 C.3     1  UNL1        0.0754
     26 C          62.5431   81.2844   12.7843 C.ar    1  UNL1        0.1546
     27 C          62.7993   82.3014   11.7119 C.ar    1  UNL1        0.0550
     28 C          62.6835   83.6640   12.3281 C.ar    1  UNL1        0.1165
     29 N          62.3557   83.4892   13.7814 N.ar    1  UNL1       -0.0803
     30 O          62.2690   82.0185   14.0633 O.2     1  UNL1       -0.3580
@<TRIPOS>BOND
     1    25    26    1
     2    26    27   ar
     3    27    28   ar
     4    28    24    1
     5    24    18    1
     6    18    19    1
     7    19    20    1
     8    20    21    1
     9    21     1    1
    10     1     2    2
    11     2     3    1
    12     2     4    1
    13     4     5    2
    14     5     6    1
    15     6     7    2
    16     7     8    1
    17     8    11    1
    18    11    12    1
    19    12    13    1
    20    13    14    1
    21    14    15    1
    22    14    16    1
    23    16    17    1
    24     8     9    2
    25     9    10    1
    26    21    22    1
    27    22    23    1
    28    28    29   ar
    29    29    30   ar
    30    30    26   ar
    31    23    18    1
    32    10     1    1
    33    10     6    1
    34    17    11    1
@<TRIPOS>MOLECULE
*****
 30 34 0 0 0
SMALL
GASTEIGER

@<TRIPOS>ATOM
      1 C          63.5283   87.2367   15.1346 C.2     1  UNL1        0.0875
      2 C          63.0535   86.8767   16.5112 C.2     1  UNL1        0.0944
      3 BR         62.7087   85.4537   16.8373 Br      1  UNL1       -0.0439
      4 C          62.9236   87.9396   17.5616 C.2     1  UNL1        0.2434
      5 N          63.2684   89.3626   17.2355 N.2     1  UNL1       -0.0304
      6 C          63.7432   89.7226   15.8589 C.2     1  UNL1        0.4031
      7 N          64.1531   91.0300   15.2486 N.2     1  UNL1        0.0326
      8 C          64.5364   90.7751   13.8209 C.cat   1  UNL1        0.4596
      9 N          64.3634   89.3102   13.5489 N.2     1  UNL1       -0.0725
     10 C          63.8732   88.6596   14.8085 C.3     1  UNL1        0.3273
     11 N          65.0096   91.8045   12.8378 N.pl3   1  UNL1       -0.1832
     12 C          64.5045   91.7809   11.4256 C.3     1  UNL1        0.1857
     13 C          64.9778   92.8103   10.4426 C.3     1  UNL1        0.1133
     14 N          65.9561   93.8633   10.8717 N.3     1  UNL1       -0.2660
     15 C          66.4294   94.8927    9.8886 C.3     1  UNL1        0.0898
     16 C          66.4612   93.8869   12.2839 C.3     1  UNL1        0.1133
     17 C          65.9879   92.8575   13.2669 C.3     1  UNL1        0.1857
     18 N          63.9182   84.0479   11.9835 N.3     1  UNL1       -0.2646
     19 C          64.7619   83.9854   13.2222 C.3     1  UNL1        0.0941
     20 C          64.6319   85.0483   14.2725 C.3     1  UNL1        0.1080
     21 N          63.6582   86.1738   14.0842 N.pl3   1  UNL1       -0.3043
     22 C          62.8146   86.2363   12.8456 C.3     1  UNL1        0.1080
     23 C          62.9446   85.1734   11.7952 C.3     1  UNL1        0.0941
     24 C          64.0481   82.9851   10.9331 C.3     1  UNL1        0.1222
     25 C          62.5167   77.9799   10.2365 C.3     1  UNL1        0.0754
     26 C          62.8179   79.3042   10.8735 C.ar    1  UNL1        0.1546
     27 C          63.3840   80.5078   10.1799 C.ar    1  UNL1        0.0550
     28 C          63.5218   81.6047   11.1937 C.ar    1  UNL1        0.1165
     29 N          63.0408   81.0792   12.5137 N.ar    1  UNL1       -0.0803
     30 O          62.6058   79.6574   12.3158 O.2     1  UNL1       -0.3580
@<TRIPOS>BOND
     1    25    26    1
     2    26    27   ar
     3    27    28   ar
     4    28    24    1
     5    24    18    1
     6    18    19    1
     7    19    20    1
     8    20    21    1
     9    21     1    1
    10     1     2    2
    11     2     3    1
    12     2     4    1
    13     4     5    2
    14     5     6    1
    15     6     7    2
    16     7     8    1
    17     8    11    1
    18    11    12    1
    19    12    13    1
    20    13    14    1
    21    14    15    1
    22    14    16    1
    23    16    17    1
    24     8     9    2
    25     9    10    1
    26    21    22    1
    27    22    23    1
    28    28    29   ar
    29    29    30   ar
    30    30    26   ar
    31    23    18    1
    32    10     1    1
    33    10     6    1
    34    17    11    1
@<TRIPOS>MOLECULE
*****
 30 34 0 0 0
SMALL
GASTEIGER

@<TRIPOS>ATOM
      1 C          63.4323   86.4787   13.7219 C.2     1  UNL1        0.0875
      2 C          63.9056   85.2103   14.3678 C.2     1  UNL1        0.0944
      3 BR         64.6777   85.2658   15.6527 Br      1  UNL1       -0.0439
      4 C          63.6069   83.8866   13.7289 C.2     1  UNL1        0.2434
      5 N          62.8348   83.8311   12.4440 N.2     1  UNL1       -0.0304
      6 C          62.3615   85.0995   11.7981 C.2     1  UNL1        0.4031
      7 N          61.5854   85.3564   10.5405 N.2     1  UNL1        0.0326
      8 C          61.4045   86.8390   10.4022 C.cat   1  UNL1        0.4596
      9 N          62.0688   87.4984   11.5743 N.2     1  UNL1       -0.0725
     10 C          62.6603   86.4233   12.4371 C.3     1  UNL1        0.3273
     11 N          60.6855   87.5393    9.2875 N.pl3   1  UNL1       -0.1832
     12 C          59.8987   86.7455    8.2871 C.3     1  UNL1        0.1857
     13 C          59.1797   87.4460    7.1723 C.3     1  UNL1        0.1133
     14 N          59.2475   88.9400    7.0580 N.3     1  UNL1       -0.2660
     15 C          58.5285   89.6404    5.9433 C.3     1  UNL1        0.0898
     16 C          60.0343   89.7338    8.0584 C.3     1  UNL1        0.1133
     17 C          60.7533   89.0334    9.1732 C.3     1  UNL1        0.1857
     18 N          64.3287   90.4502   15.6388 N.3     1  UNL1       -0.2646
     19 C          64.7599   90.1845   14.2268 C.3     1  UNL1        0.0941
     20 C          64.4611   88.8607   13.5879 C.3     1  UNL1        0.1080
     21 N          63.7311   87.8025   14.3609 N.pl3   1  UNL1       -0.3043
     22 C          63.2999   88.0682   15.7728 C.3     1  UNL1        0.1080
     23 C          63.5988   89.3920   16.4117 C.3     1  UNL1        0.0941
     24 C          64.6275   91.7739   16.2777 C.3     1  UNL1        0.1222
     25 C          69.4055   94.0002   15.9686 C.3     1  UNL1        0.0754
     26 C          67.9894   93.6132   15.6608 C.ar    1  UNL1        0.1546
     27 C          67.1295   92.6936   16.4763 C.ar    1  UNL1        0.0550
     28 C          65.7932   92.5899   15.8028 C.ar    1  UNL1        0.1165
     29 N          65.8272   93.4454   14.5712 N.ar    1  UNL1       -0.0803
     30 O          67.1845   94.0779   14.4834 O.2     1  UNL1       -0.3580
@<TRIPOS>BOND
     1    25    26    1
     2    26    27   ar
     3    27    28   ar
     4    28    24    1
     5    24    18    1
     6    18    19    1
     7    19    20    1
     8    20    21    1
     9    21     1    1
    10     1     2    2
    11     2     3    1
    12     2     4    1
    13     4     5    2
    14     5     6    1
    15     6     7    2
    16     7     8    1
    17     8    11    1
    18    11    12    1
    19    12    13    1
    20    13    14    1
    21    14    15    1
    22    14    16    1
    23    16    17    1
    24     8     9    2
    25     9    10    1
    26    21    22    1
    27    22    23    1
    28    28    29   ar
    29    29    30   ar
    30    30    26   ar
    31    23    18    1
    32    10     1    1
    33    10     6    1
    34    17    11    1
@<TRIPOS>MOLECULE
*****
 30 34 0 0 0
SMALL
GASTEIGER

@<TRIPOS>ATOM
      1 C          62.2769   89.0341   11.2232 C.2     1  UNL1        0.0875
      2 C          61.6088   89.8172   10.1323 C.2     1  UNL1        0.0944
      3 BR         61.7009   91.3144   10.1195 Br      1  UNL1       -0.0439
      4 C          60.8486   89.1033    9.0542 C.2     1  UNL1        0.2434
      5 N          60.7565   87.6062    9.0669 N.2     1  UNL1       -0.0304
      6 C          61.4246   86.8230   10.1579 C.2     1  UNL1        0.4031
      7 N          61.5060   85.3503   10.4308 N.2     1  UNL1        0.0326
      8 C          62.3165   85.1541   11.6776 C.cat   1  UNL1        0.4596
      9 N          62.7360   86.5055   12.1753 N.2     1  UNL1       -0.0725
     10 C          62.1848   87.5370   11.2361 C.3     1  UNL1        0.3273
     11 N          62.6491   83.8375   12.3149 N.pl3   1  UNL1       -0.1832
     12 C          62.9399   83.7680   13.7848 C.3     1  UNL1        0.1857
     13 C          63.2725   82.4514   14.4220 C.3     1  UNL1        0.1133
     14 N          63.3143   81.2044   13.5894 N.3     1  UNL1       -0.2660
     15 C          63.6469   79.8879   14.2267 C.3     1  UNL1        0.0898
     16 C          63.0235   81.2739   12.1195 C.3     1  UNL1        0.1133
     17 C          62.6909   82.5905   11.4823 C.3     1  UNL1        0.1857
     18 N          64.5575   91.1759   14.4578 N.3     1  UNL1       -0.2646
     19 C          63.6426   90.0408   14.8109 C.3     1  UNL1        0.0941
     20 C          62.8824   89.3269   13.7328 C.3     1  UNL1        0.1080
     21 N          63.0371   89.7480   12.3014 N.pl3   1  UNL1       -0.3043
     22 C          63.9519   90.8830   11.9482 C.3     1  UNL1        0.1080
     23 C          64.7121   91.5969   13.0264 C.3     1  UNL1        0.0941
     24 C          65.3176   91.8897   15.5359 C.3     1  UNL1        0.1222
     25 C          70.0119   94.2506   16.0566 C.3     1  UNL1        0.0754
     26 C          68.8990   93.3862   15.5426 C.ar    1  UNL1        0.1546
     27 C          67.5246   93.2746   16.1331 C.ar    1  UNL1        0.0550
     28 C          66.7413   92.3011   15.3032 C.ar    1  UNL1        0.1165
     29 N          67.6315   91.8111   14.1999 N.ar    1  UNL1       -0.0803
     30 O          68.9650   92.4817   14.3478 O.2     1  UNL1       -0.3580
@<TRIPOS>BOND
     1    25    26    1
     2    26    27   ar
     3    27    28   ar
     4    28    24    1
     5    24    18    1
     6    18    19    1
     7    19    20    1
     8    20    21    1
     9    21     1    1
    10     1     2    2
    11     2     3    1
    12     2     4    1
    13     4     5    2
    14     5     6    1
    15     6     7    2
    16     7     8    1
    17     8    11    1
    18    11    12    1
    19    12    13    1
    20    13    14    1
    21    14    15    1
    22    14    16    1
    23    16    17    1
    24     8     9    2
    25     9    10    1
    26    21    22    1
    27    22    23    1
    28    28    29   ar
    29    29    30   ar
    30    30    26   ar
    31    23    18    1
    32    10     1    1
    33    10     6    1
    34    17    11    1
