@<TRIPOS>MOLECULE
*****
 38 41 0 0 0
SMALL
GASTEIGER

@<TRIPOS>ATOM
      1 C          63.4477   86.3903   13.0543 C.2     1  UNL1        0.2894
      2 O          63.5515   87.8107   12.5835 O.2     1  UNL1       -0.2688
      3 N          63.4140   86.0876   14.5231 N.am    1  UNL1       -0.1703
      4 N          63.3130   84.7242   15.1402 N.2     1  UNL1       -0.1783
      5 C          63.3119   84.8890   16.6311 C.2     1  UNL1        0.0938
      6 C          63.4123   86.3544   16.9354 C.3     1  UNL1        0.0799
      7 C          63.4754   87.0952   15.6326 C.3     1  UNL1        0.1809
      8 C          63.5812   88.5823   15.4682 C.2     1  UNL1        0.2432
      9 O          62.5043   89.4753   16.0094 O.2     1  UNL1       -0.2732
     10 N          64.7640   89.1766   14.7625 N.am    1  UNL1       -0.2990
     11 H          65.4708   88.5906   14.4073 H       1  UNL1        0.1498
     12 C          64.8698   90.6638   14.5981 C.3     1  UNL1        0.1179
     13 C          64.8744   91.2682   13.2252 C.ar    1  UNL1        0.0161
     14 C          63.8005   90.9058   12.2426 C.ar    1  UNL1        0.0103
     15 C          63.8052   91.5101   10.8698 C.ar    1  UNL1        0.0575
     16 CL         62.7313   91.1478    9.8871 Cl      1  UNL1       -0.0823
     17 C          64.8836   92.4769   10.4795 C.ar    1  UNL1        0.0129
     18 C          65.9575   92.8393   11.4621 C.ar    1  UNL1        0.0199
     19 C          65.9529   92.2349   12.8349 C.ar    1  UNL1        0.0839
     20 N          67.0268   92.5973   13.8175 N.ar    1  UNL1       -0.1889
     21 C          66.8392   93.3934   15.0749 C.ar    1  UNL1        0.2258
     22 N          68.1732   93.5153   15.7497 N.ar    1  UNL1       -0.1045
     23 N          69.1854   92.7945   14.9094 N.ar    1  UNL1       -0.0222
     24 N          68.4768   92.2271   13.7153 N.ar    1  UNL1       -0.0385
     25 C          63.3777   85.2727   12.0563 C.3     1  UNL1        0.2681
     26 C          62.6312   85.4623   10.7692 C.ar    1  UNL1        0.0265
     27 C          61.2598   86.0698   10.7800 C.ar    1  UNL1        0.0020
     28 C          60.5133   86.2594    9.4929 C.ar    1  UNL1        0.0294
     29 C          61.1383   85.8415    8.1949 C.ar    1  UNL1        0.1401
     30 F          60.3918   86.0311    6.9077 F       1  UNL1       -0.2042
     31 C          62.5097   85.2340    8.1840 C.ar    1  UNL1        0.0294
     32 C          63.2562   85.0444    9.4712 C.ar    1  UNL1        0.0020
     33 O          64.0541   83.9655   12.3456 O.3     1  UNL1       -0.4381
     34 C          63.6639   82.7342   11.5829 C.2     1  UNL1        0.3176
     35 O          64.5396   82.2296   10.4746 O.2     1  UNL1       -0.2501
     36 C          62.3980   82.0075   11.9286 C.3     1  UNL1        0.1096
     37 C          61.3340   81.1029   14.1194 C.3     1  UNL1        0.0006
     38 C          62.3860   81.0156   13.0538 C.3     1  UNL1        0.0117
@<TRIPOS>BOND
     1    37    38    1
     2    38    36    1
     3    36    34    1
     4    34    35    2
     5    34    33    1
     6    25    33    1
     7    25     1    1
     8     1     2    2
     9     1     3   am
    10     3     4    1
    11     4     5    2
    12     5     6    1
    13     6     7    1
    14     7     8    1
    15     8     9    2
    16     8    10   am
    17    10    12    1
    18    12    13    1
    19    13    14   ar
    20    14    15   ar
    21    15    16    1
    22    15    17   ar
    23    17    18   ar
    24    18    19   ar
    25    19    20    1
    26    20    21   ar
    27    21    22   ar
    28    22    23   ar
    29    23    24   ar
    30    25    26    1
    31    26    27   ar
    32    27    28   ar
    33    28    29   ar
    34    29    30    1
    35    29    31   ar
    36    31    32   ar
    37     7     3    1
    38    19    13   ar
    39    24    20   ar
    40    32    26   ar
    41    10    11    1
@<TRIPOS>MOLECULE
*****
 38 41 0 0 0
SMALL
GASTEIGER

@<TRIPOS>ATOM
      1 C          63.1443   86.5598   12.5049 C.2     1  UNL1        0.2894
      2 O          63.6026   87.8239   13.1697 O.2     1  UNL1       -0.2688
      3 N          62.2915   86.6271   11.2728 N.am    1  UNL1       -0.1703
      4 N          61.7604   85.4543   10.5031 N.2     1  UNL1       -0.1783
      5 C          60.9607   85.9813    9.3486 C.2     1  UNL1        0.0938
      6 C          60.9975   87.4797    9.4049 C.3     1  UNL1        0.0799
      7 C          61.8200   87.8789   10.5941 C.3     1  UNL1        0.1809
      8 C          62.1186   89.2832   11.0284 C.2     1  UNL1        0.2432
      9 O          61.0276   90.1395   11.5998 O.2     1  UNL1       -0.2732
     10 N          63.5081   89.8313   10.8912 N.am    1  UNL1       -0.2990
     11 H          64.2242   89.2693   10.5161 H       1  UNL1        0.1498
     12 C          63.8067   91.2357   11.3254 C.3     1  UNL1        0.1179
     13 C          64.3748   91.4942   12.6895 C.ar    1  UNL1        0.0161
     14 C          63.6858   90.9478   13.9047 C.ar    1  UNL1        0.0103
     15 C          64.2539   91.2064   15.2687 C.ar    1  UNL1        0.0575
     16 CL         63.5650   90.6600   16.4840 Cl      1  UNL1       -0.0823
     17 C          65.5109   92.0113   15.4174 C.ar    1  UNL1        0.0129
     18 C          66.1998   92.5577   14.2021 C.ar    1  UNL1        0.0199
     19 C          65.6317   92.2991   12.8382 C.ar    1  UNL1        0.0839
     20 N          66.3206   92.8455   11.6229 N.ar    1  UNL1       -0.1889
     21 C          65.8313   93.9742   10.7647 C.ar    1  UNL1        0.2258
     22 N          66.8281   94.1854    9.6638 N.ar    1  UNL1       -0.1045
     23 N          67.9335   93.1871    9.8417 N.ar    1  UNL1       -0.0222
     24 N          67.6199   92.3590   11.0524 N.ar    1  UNL1       -0.0385
     25 C          63.5389   85.2285   13.0723 C.3     1  UNL1        0.2681
     26 C          63.4400   83.9937   12.2265 C.ar    1  UNL1        0.0265
     27 C          62.4610   82.9154   12.5853 C.ar    1  UNL1        0.0020
     28 C          62.3621   81.6805   11.7395 C.ar    1  UNL1        0.0294
     29 C          63.2422   81.5240   10.5350 C.ar    1  UNL1        0.1401
     30 F          63.1434   80.2892    9.6891 F       1  UNL1       -0.2042
     31 C          64.2212   82.6024   10.1762 C.ar    1  UNL1        0.0294
     32 C          64.3201   83.8372   11.0220 C.ar    1  UNL1        0.0020
     33 O          64.0322   85.1321   14.4856 O.3     1  UNL1       -0.4381
     34 C          63.2006   84.4403   15.5248 C.2     1  UNL1        0.3176
     35 O          63.3220   82.9577   15.7174 O.2     1  UNL1       -0.2501
     36 C          62.2477   85.2311   16.3712 C.3     1  UNL1        0.1096
     37 C          62.7579   87.4859   17.5568 C.3     1  UNL1        0.0006
     38 C          62.7537   85.9860   17.5647 C.3     1  UNL1        0.0117
@<TRIPOS>BOND
     1    37    38    1
     2    38    36    1
     3    36    34    1
     4    34    35    2
     5    34    33    1
     6    25    33    1
     7    25     1    1
     8     1     2    2
     9     1     3   am
    10     3     4    1
    11     4     5    2
    12     5     6    1
    13     6     7    1
    14     7     8    1
    15     8     9    2
    16     8    10   am
    17    10    12    1
    18    12    13    1
    19    13    14   ar
    20    14    15   ar
    21    15    16    1
    22    15    17   ar
    23    17    18   ar
    24    18    19   ar
    25    19    20    1
    26    20    21   ar
    27    21    22   ar
    28    22    23   ar
    29    23    24   ar
    30    25    26    1
    31    26    27   ar
    32    27    28   ar
    33    28    29   ar
    34    29    30    1
    35    29    31   ar
    36    31    32   ar
    37     7     3    1
    38    19    13   ar
    39    24    20   ar
    40    32    26   ar
    41    10    11    1
@<TRIPOS>MOLECULE
*****
 38 41 0 0 0
SMALL
GASTEIGER

@<TRIPOS>ATOM
      1 C          62.2716   87.1141   11.1599 C.2     1  UNL1        0.2894
      2 O          63.0341   88.0847   12.0122 O.2     1  UNL1       -0.2688
      3 N          61.3584   87.6189   10.0823 N.am    1  UNL1       -0.1703
      4 N          60.5358   86.7730    9.1560 N.2     1  UNL1       -0.1783
      5 C          59.7763   87.6894    8.2430 C.2     1  UNL1        0.0938
      6 C          60.1295   89.1016    8.6051 C.3     1  UNL1        0.0799
      7 C          61.1073   89.0579    9.7418 C.3     1  UNL1        0.1809
      8 C          61.7254   90.2450   10.4192 C.2     1  UNL1        0.2432
      9 O          60.8742   91.1670   11.2410 O.2     1  UNL1       -0.2732
     10 N          63.1948   90.5101   10.2747 N.am    1  UNL1       -0.2990
     11 H          63.7534   89.9049    9.7353 H       1  UNL1        0.1498
     12 C          63.8129   91.6971   10.9520 C.3     1  UNL1        0.1179
     13 C          64.3616   91.5660   12.3420 C.ar    1  UNL1        0.0161
     14 C          63.6274   90.7501   13.3643 C.ar    1  UNL1        0.0103
     15 C          64.1761   90.6190   14.7541 C.ar    1  UNL1        0.0575
     16 CL         63.4419   89.8030   15.7765 Cl      1  UNL1       -0.0823
     17 C          65.4590   91.3040   15.1216 C.ar    1  UNL1        0.0129
     18 C          66.1932   92.1199   14.0993 C.ar    1  UNL1        0.0199
     19 C          65.6444   92.2510   12.7095 C.ar    1  UNL1        0.0839
     20 N          66.3786   93.0670   11.6871 N.ar    1  UNL1       -0.1889
     21 C          66.1800   94.5292   11.4179 C.ar    1  UNL1        0.2258
     22 N          67.1189   94.9299   10.3189 N.ar    1  UNL1       -0.1045
     23 N          67.8979   93.7153    9.9088 N.ar    1  UNL1       -0.0222
     24 N          67.4403   92.5640   10.7545 N.ar    1  UNL1       -0.0385
     25 C          62.4225   85.6388   11.3851 C.3     1  UNL1        0.2681
     26 C          62.8777   85.1265   12.7194 C.ar    1  UNL1        0.0265
     27 C          63.8753   85.9080   13.5221 C.ar    1  UNL1        0.0020
     28 C          64.3306   85.3958   14.8564 C.ar    1  UNL1        0.0294
     29 C          63.7884   84.1022   15.3879 C.ar    1  UNL1        0.1401
     30 F          64.2437   83.5899   16.7222 F       1  UNL1       -0.2042
     31 C          62.7909   83.3207   14.5852 C.ar    1  UNL1        0.0294
     32 C          62.3356   83.8329   13.2510 C.ar    1  UNL1        0.0020
     33 O          62.1180   84.6758   10.2761 O.3     1  UNL1       -0.4381
     34 C          63.1768   84.3296    9.2716 C.2     1  UNL1        0.3176
     35 O          63.1152   84.9059    7.8882 O.2     1  UNL1       -0.2501
     36 C          64.2972   83.4071    9.6507 C.3     1  UNL1        0.1096
     37 C          63.2257   81.2122   10.5364 C.3     1  UNL1        0.0006
     38 C          64.1056   82.4076   10.7527 C.3     1  UNL1        0.0117
@<TRIPOS>BOND
     1    37    38    1
     2    38    36    1
     3    36    34    1
     4    34    35    2
     5    34    33    1
     6    25    33    1
     7    25     1    1
     8     1     2    2
     9     1     3   am
    10     3     4    1
    11     4     5    2
    12     5     6    1
    13     6     7    1
    14     7     8    1
    15     8     9    2
    16     8    10   am
    17    10    12    1
    18    12    13    1
    19    13    14   ar
    20    14    15   ar
    21    15    16    1
    22    15    17   ar
    23    17    18   ar
    24    18    19   ar
    25    19    20    1
    26    20    21   ar
    27    21    22   ar
    28    22    23   ar
    29    23    24   ar
    30    25    26    1
    31    26    27   ar
    32    27    28   ar
    33    28    29   ar
    34    29    30    1
    35    29    31   ar
    36    31    32   ar
    37     7     3    1
    38    19    13   ar
    39    24    20   ar
    40    32    26   ar
    41    10    11    1
@<TRIPOS>MOLECULE
*****
 38 41 0 0 0
SMALL
GASTEIGER

@<TRIPOS>ATOM
      1 C          62.3135   86.5080   11.2170 C.2     1  UNL1        0.2894
      2 O          62.7511   87.5680   12.1839 O.2     1  UNL1       -0.2688
      3 N          61.4239   86.8660   10.0637 N.am    1  UNL1       -0.1703
      4 N          60.9077   85.9189    9.0213 N.2     1  UNL1       -0.1783
      5 C          60.0589   86.7015    8.0635 C.2     1  UNL1        0.0938
      6 C          60.0505   88.1322    8.5141 C.3     1  UNL1        0.0799
      7 C          60.8941   88.2339    9.7502 C.3     1  UNL1        0.1809
      8 C          61.1611   89.4839   10.5351 C.2     1  UNL1        0.2432
      9 O          60.0192   90.3511   10.9757 O.2     1  UNL1       -0.2732
     10 N          62.5699   89.8668   10.8794 N.am    1  UNL1       -0.2990
     11 H          63.3194   89.2977   10.5903 H       1  UNL1        0.1498
     12 C          62.8369   91.1169   11.6643 C.3     1  UNL1        0.1179
     13 C          64.2418   91.6190   11.8202 C.ar    1  UNL1        0.0161
     14 C          64.9127   92.3347   10.6855 C.ar    1  UNL1        0.0103
     15 C          66.3175   92.8367   10.8414 C.ar    1  UNL1        0.0575
     16 CL         66.9885   93.5524    9.7066 Cl      1  UNL1       -0.0823
     17 C          67.0514   92.6231   12.1320 C.ar    1  UNL1        0.0129
     18 C          66.3805   91.9074   13.2668 C.ar    1  UNL1        0.0199
     19 C          64.9757   91.4054   13.1108 C.ar    1  UNL1        0.0839
     20 N          64.3047   90.6896   14.2456 N.ar    1  UNL1       -0.1889
     21 C          64.2778   89.2052   14.4589 C.ar    1  UNL1        0.2258
     22 N          63.4993   88.9309   15.7114 N.ar    1  UNL1       -0.1045
     23 N          63.0450   90.2459   16.2722 N.ar    1  UNL1       -0.0222
     24 N          63.5428   91.3328   15.3662 N.ar    1  UNL1       -0.0385
     25 C          62.7657   85.0900   11.4036 C.3     1  UNL1        0.2681
     26 C          63.1557   84.6003   12.7668 C.ar    1  UNL1        0.0265
     27 C          64.6049   84.4867   13.1366 C.ar    1  UNL1        0.0020
     28 C          64.9949   83.9971   14.4997 C.ar    1  UNL1        0.0294
     29 C          63.9357   83.6210   15.4930 C.ar    1  UNL1        0.1401
     30 F          64.3256   83.1313   16.8561 F       1  UNL1       -0.2042
     31 C          62.4865   83.7346   15.1231 C.ar    1  UNL1        0.0294
     32 C          62.0964   84.2242   13.7600 C.ar    1  UNL1        0.0020
     33 O          62.8279   84.1617   10.2270 O.3     1  UNL1       -0.4381
     34 C          63.4983   82.8264   10.3598 C.2     1  UNL1        0.3176
     35 O          64.9223   82.6552    9.9208 O.2     1  UNL1       -0.2501
     36 C          62.7446   81.6623   10.9315 C.3     1  UNL1        0.1096
     37 C          62.2780   80.5583   13.2366 C.3     1  UNL1        0.0006
     38 C          63.2449   80.9803   12.1702 C.3     1  UNL1        0.0117
@<TRIPOS>BOND
     1    37    38    1
     2    38    36    1
     3    36    34    1
     4    34    35    2
     5    34    33    1
     6    25    33    1
     7    25     1    1
     8     1     2    2
     9     1     3   am
    10     3     4    1
    11     4     5    2
    12     5     6    1
    13     6     7    1
    14     7     8    1
    15     8     9    2
    16     8    10   am
    17    10    12    1
    18    12    13    1
    19    13    14   ar
    20    14    15   ar
    21    15    16    1
    22    15    17   ar
    23    17    18   ar
    24    18    19   ar
    25    19    20    1
    26    20    21   ar
    27    21    22   ar
    28    22    23   ar
    29    23    24   ar
    30    25    26    1
    31    26    27   ar
    32    27    28   ar
    33    28    29   ar
    34    29    30    1
    35    29    31   ar
    36    31    32   ar
    37     7     3    1
    38    19    13   ar
    39    24    20   ar
    40    32    26   ar
    41    10    11    1
@<TRIPOS>MOLECULE
*****
 38 41 0 0 0
SMALL
GASTEIGER

@<TRIPOS>ATOM
      1 C          62.4078   87.8345   11.5138 C.2     1  UNL1        0.2894
      2 O          63.7891   88.0901   12.0399 O.2     1  UNL1       -0.2688
      3 N          61.4656   88.9805   11.2926 N.am    1  UNL1       -0.1703
      4 N          60.0616   88.8800   10.7744 N.2     1  UNL1       -0.1783
      5 C          59.4901   90.2656   10.7122 C.2     1  UNL1        0.0938
      6 C          60.5411   91.2223   11.1919 C.3     1  UNL1        0.0799
      7 C          61.7620   90.4281   11.5506 C.3     1  UNL1        0.1809
      8 C          63.0526   90.9839   12.0753 C.2     1  UNL1        0.2432
      9 O          63.2683   91.1112   13.5542 O.2     1  UNL1       -0.2732
     10 N          64.1277   91.4123   11.1210 N.am    1  UNL1       -0.2990
     11 H          63.9862   91.3287   10.1503 H       1  UNL1        0.1498
     12 C          65.4184   91.9681   11.6456 C.3     1  UNL1        0.1179
     13 C          65.6812   93.4435   11.5804 C.ar    1  UNL1        0.0161
     14 C          65.3610   94.2078   10.3302 C.ar    1  UNL1        0.0103
     15 C          65.6239   95.6832   10.2650 C.ar    1  UNL1        0.0575
     16 CL         65.3037   96.4476    9.0147 Cl      1  UNL1       -0.0823
     17 C          66.2069   96.3942   11.4502 C.ar    1  UNL1        0.0129
     18 C          66.5271   95.6298   12.7005 C.ar    1  UNL1        0.0199
     19 C          66.2642   94.1545   12.7656 C.ar    1  UNL1        0.0839
     20 N          66.5844   93.3901   14.0159 N.ar    1  UNL1       -0.1889
     21 C          67.9095   92.7769   14.3595 C.ar    1  UNL1        0.2258
     22 N          67.7797   92.1125   15.6980 N.ar    1  UNL1       -0.1045
     23 N          66.3743   92.3151   16.1818 N.ar    1  UNL1       -0.0222
     24 N          65.6356   93.1046   15.1421 N.ar    1  UNL1       -0.0385
     25 C          61.9689   86.4329   11.2090 C.3     1  UNL1        0.2681
     26 C          61.8515   85.9768    9.7849 C.ar    1  UNL1        0.0265
     27 C          63.0167   85.3148    9.1110 C.ar    1  UNL1        0.0020
     28 C          62.8993   84.8586    7.6869 C.ar    1  UNL1        0.0294
     29 C          61.6168   85.0644    6.9367 C.ar    1  UNL1        0.1401
     30 F          61.4994   84.6082    5.5126 F       1  UNL1       -0.2042
     31 C          60.4516   85.7263    7.6106 C.ar    1  UNL1        0.0294
     32 C          60.5689   86.1825    9.0347 C.ar    1  UNL1        0.0020
     33 O          61.6473   85.4876   12.3283 O.3     1  UNL1       -0.4381
     34 C          62.7522   84.7645   13.0401 C.2     1  UNL1        0.3176
     35 O          63.5493   85.4683   14.0981 O.2     1  UNL1       -0.2501
     36 C          63.0598   83.3378   12.6939 C.3     1  UNL1        0.1096
     37 C          64.1736   82.5165   10.4951 C.3     1  UNL1        0.0006
     38 C          64.2935   83.0061   11.9079 C.3     1  UNL1        0.0117
@<TRIPOS>BOND
     1    37    38    1
     2    38    36    1
     3    36    34    1
     4    34    35    2
     5    34    33    1
     6    25    33    1
     7    25     1    1
     8     1     2    2
     9     1     3   am
    10     3     4    1
    11     4     5    2
    12     5     6    1
    13     6     7    1
    14     7     8    1
    15     8     9    2
    16     8    10   am
    17    10    12    1
    18    12    13    1
    19    13    14   ar
    20    14    15   ar
    21    15    16    1
    22    15    17   ar
    23    17    18   ar
    24    18    19   ar
    25    19    20    1
    26    20    21   ar
    27    21    22   ar
    28    22    23   ar
    29    23    24   ar
    30    25    26    1
    31    26    27   ar
    32    27    28   ar
    33    28    29   ar
    34    29    30    1
    35    29    31   ar
    36    31    32   ar
    37     7     3    1
    38    19    13   ar
    39    24    20   ar
    40    32    26   ar
    41    10    11    1
@<TRIPOS>MOLECULE
*****
 38 41 0 0 0
SMALL
GASTEIGER

@<TRIPOS>ATOM
      1 C          63.1743   86.1857   12.3793 C.2     1  UNL1        0.2894
      2 O          63.0132   87.6736   12.2785 O.2     1  UNL1       -0.2688
      3 N          63.6724   85.5699   13.6532 N.am    1  UNL1       -0.1703
      4 N          63.8830   84.1056   13.9011 N.2     1  UNL1       -0.1783
      5 C          64.3881   83.9409   15.3039 C.2     1  UNL1        0.0938
      6 C          64.4896   85.3034   15.9229 C.3     1  UNL1        0.0799
      7 C          64.0473   86.3102   14.9027 C.3     1  UNL1        0.1809
      8 C          63.9900   87.7963   15.0978 C.2     1  UNL1        0.2432
      9 O          63.0921   88.3809   16.1476 O.2     1  UNL1       -0.2732
     10 N          64.8306   88.6980   14.2430 N.am    1  UNL1       -0.2990
     11 H          65.4199   88.3143   13.5540 H       1  UNL1        0.1498
     12 C          64.7732   90.1841   14.4381 C.3     1  UNL1        0.1179
     13 C          64.8409   91.0995   13.2517 C.ar    1  UNL1        0.0161
     14 C          63.9075   90.8982   12.0949 C.ar    1  UNL1        0.0103
     15 C          63.9752   91.8136   10.9085 C.ar    1  UNL1        0.0575
     16 CL         63.0417   91.6123    9.7517 Cl      1  UNL1       -0.0823
     17 C          64.9764   92.9302   10.8790 C.ar    1  UNL1        0.0129
     18 C          65.9098   93.1314   12.0357 C.ar    1  UNL1        0.0199
     19 C          65.8421   92.2161   13.2221 C.ar    1  UNL1        0.0839
     20 N          66.7755   92.4173   14.3789 N.ar    1  UNL1       -0.1889
     21 C          66.3748   92.7036   15.7957 C.ar    1  UNL1        0.2258
     22 N          67.6252   92.8308   16.6145 N.ar    1  UNL1       -0.1045
     23 N          68.7988   92.6231   15.7036 N.ar    1  UNL1       -0.0222
     24 N          68.2736   92.3675   14.3220 N.ar    1  UNL1       -0.0385
     25 C          62.8373   85.3137   11.2063 C.3     1  UNL1        0.2681
     26 C          62.8450   83.8211   11.3546 C.ar    1  UNL1        0.0265
     27 C          61.9968   83.1674   12.4049 C.ar    1  UNL1        0.0020
     28 C          62.0044   81.6748   12.5533 C.ar    1  UNL1        0.0294
     29 C          62.8603   80.8359   11.6513 C.ar    1  UNL1        0.1401
     30 F          62.8680   79.3433   11.7996 F       1  UNL1       -0.2042
     31 C          63.7085   81.4895   10.6009 C.ar    1  UNL1        0.0294
     32 C          63.7009   82.9821   10.4526 C.ar    1  UNL1        0.0020
     33 O          62.4925   85.9344    9.8850 O.3     1  UNL1       -0.4381
     34 C          61.0838   86.3664    9.6040 C.2     1  UNL1        0.3176
     35 O          60.3081   87.1179   10.6449 O.2     1  UNL1       -0.2501
     36 C          60.4508   86.0469    8.2822 C.3     1  UNL1        0.1096
     37 C          59.4234   88.3331    7.5983 C.3     1  UNL1        0.0006
     38 C          59.2830   86.8527    7.7955 C.3     1  UNL1        0.0117
@<TRIPOS>BOND
     1    37    38    1
     2    38    36    1
     3    36    34    1
     4    34    35    2
     5    34    33    1
     6    25    33    1
     7    25     1    1
     8     1     2    2
     9     1     3   am
    10     3     4    1
    11     4     5    2
    12     5     6    1
    13     6     7    1
    14     7     8    1
    15     8     9    2
    16     8    10   am
    17    10    12    1
    18    12    13    1
    19    13    14   ar
    20    14    15   ar
    21    15    16    1
    22    15    17   ar
    23    17    18   ar
    24    18    19   ar
    25    19    20    1
    26    20    21   ar
    27    21    22   ar
    28    22    23   ar
    29    23    24   ar
    30    25    26    1
    31    26    27   ar
    32    27    28   ar
    33    28    29   ar
    34    29    30    1
    35    29    31   ar
    36    31    32   ar
    37     7     3    1
    38    19    13   ar
    39    24    20   ar
    40    32    26   ar
    41    10    11    1
