@<TRIPOS>MOLECULE
*****
 11 12 0 0 0
SMALL
GASTEIGER

@<TRIPOS>ATOM
      1 C          66.8302   91.5734   14.7029 C.ar    1  UNL1        0.0207
      2 C          65.3459   91.4005   14.8326 C.ar    1  UNL1        0.0989
      3 N          64.4510   91.7028   13.6673 N.ar    1  UNL1       -0.2423
      4 C          65.0404   92.1779   12.3724 C.ar    1  UNL1        0.0989
      5 C          66.5248   92.3508   12.2428 C.ar    1  UNL1        0.0197
      6 C          67.4196   92.0485   13.4080 C.ar    1  UNL1        0.0032
      7 C          67.1143   92.8259   10.9478 C.ar    1  UNL1        0.0085
      8 C          68.0740   92.0631   10.0835 C.ar    1  UNL1        0.0075
      9 C          68.4004   92.9129    8.8914 C.ar    1  UNL1        0.0355
     10 S          67.6424   94.2011    9.0190 S.2     1  UNL1       -0.0859
     11 C          66.8476   94.1473   10.2899 C.ar    1  UNL1        0.0355
@<TRIPOS>BOND
     1     1     2   ar
     2     2     3   ar
     3     3     4   ar
     4     4     5   ar
     5     5     7    1
     6     7     8   ar
     7     8     9   ar
     8     9    10   ar
     9    10    11   ar
    10     5     6   ar
    11     6     1   ar
    12    11     7   ar
@<TRIPOS>MOLECULE
*****
 11 12 0 0 0
SMALL
GASTEIGER

@<TRIPOS>ATOM
      1 C          64.3674   82.9917   10.4218 C.ar    1  UNL1        0.0207
      2 C          64.4251   82.7662   11.9036 C.ar    1  UNL1        0.0989
      3 N          63.5827   83.6003   12.8225 N.ar    1  UNL1       -0.2423
      4 C          62.6826   84.6600   12.2598 C.ar    1  UNL1        0.0989
      5 C          62.6249   84.8856   10.7780 C.ar    1  UNL1        0.0197
      6 C          63.4673   84.0514    9.8590 C.ar    1  UNL1        0.0032
      7 C          61.7248   85.9453   10.2151 C.ar    1  UNL1        0.0085
      8 C          61.4255   86.1674    8.7621 C.ar    1  UNL1        0.0075
      9 C          60.4817   87.3283    8.6553 C.ar    1  UNL1        0.0355
     10 S          60.1976   87.8237   10.0424 S.2     1  UNL1       -0.0859
     11 C          60.9659   86.9690   11.0063 C.ar    1  UNL1        0.0355
@<TRIPOS>BOND
     1     1     2   ar
     2     2     3   ar
     3     3     4   ar
     4     4     5   ar
     5     5     7    1
     6     7     8   ar
     7     8     9   ar
     8     9    10   ar
     9    10    11   ar
    10     5     6   ar
    11     6     1   ar
    12    11     7   ar
@<TRIPOS>MOLECULE
*****
 11 12 0 0 0
SMALL
GASTEIGER

@<TRIPOS>ATOM
      1 C          67.4398   93.0432   16.2522 C.ar    1  UNL1        0.0207
      2 C          68.7442   93.1088   15.5147 C.ar    1  UNL1        0.0989
      3 N          68.8569   92.5268   14.1368 N.ar    1  UNL1       -0.2423
      4 C          67.6651   91.8792   13.4964 C.ar    1  UNL1        0.0989
      5 C          66.3606   91.8136   14.2339 C.ar    1  UNL1        0.0197
      6 C          66.2479   92.3956   15.6118 C.ar    1  UNL1        0.0032
      7 C          65.1687   91.1660   13.5935 C.ar    1  UNL1        0.0085
      8 C          64.4905   89.9117   14.0590 C.ar    1  UNL1        0.0075
      9 C          63.3484   89.6295   13.1284 C.ar    1  UNL1        0.0355
     10 S          63.3209   90.7094   12.0877 S.2     1  UNL1       -0.0859
     11 C          64.4459   91.6590   12.3751 C.ar    1  UNL1        0.0355
@<TRIPOS>BOND
     1     1     2   ar
     2     2     3   ar
     3     3     4   ar
     4     4     5   ar
     5     5     7    1
     6     7     8   ar
     7     8     9   ar
     8     9    10   ar
     9    10    11   ar
    10     5     6   ar
    11     6     1   ar
    12    11     7   ar
@<TRIPOS>MOLECULE
*****
 11 12 0 0 0
SMALL
GASTEIGER

@<TRIPOS>ATOM
      1 C          63.2975   90.8970   11.7442 C.ar    1  UNL1        0.0207
      2 C          63.5048   90.8722   13.2296 C.ar    1  UNL1        0.0989
      3 N          64.6571   91.6146   13.8386 N.ar    1  UNL1       -0.2423
      4 C          65.6022   92.3819   12.9621 C.ar    1  UNL1        0.0989
      5 C          65.3949   92.4066   11.4768 C.ar    1  UNL1        0.0197
      6 C          64.2425   91.6642   10.8678 C.ar    1  UNL1        0.0032
      7 C          66.3401   93.1739   10.6003 C.ar    1  UNL1        0.0085
      8 C          67.5585   92.6216    9.9218 C.ar    1  UNL1        0.0075
      9 C          68.2042   93.7344    9.1506 C.ar    1  UNL1        0.0355
     10 S          67.3847   94.9745    9.3525 S.2     1  UNL1       -0.0859
     11 C          66.2326   94.6281   10.2484 C.ar    1  UNL1        0.0355
@<TRIPOS>BOND
     1     1     2   ar
     2     2     3   ar
     3     3     4   ar
     4     4     5   ar
     5     5     7    1
     6     7     8   ar
     7     8     9   ar
     8     9    10   ar
     9    10    11   ar
    10     5     6   ar
    11     6     1   ar
    12    11     7   ar
@<TRIPOS>MOLECULE
*****
 11 12 0 0 0
SMALL
GASTEIGER

@<TRIPOS>ATOM
      1 C          68.1631   93.1365    9.2405 C.ar    1  UNL1        0.0207
      2 C          67.9492   94.6171    9.1307 C.ar    1  UNL1        0.0989
      3 N          67.0261   95.3143   10.0856 N.ar    1  UNL1       -0.2423
      4 C          66.3171   94.5311   11.1503 C.ar    1  UNL1        0.0989
      5 C          66.5310   93.0505   11.2601 C.ar    1  UNL1        0.0197
      6 C          67.4540   92.3532   10.3052 C.ar    1  UNL1        0.0032
      7 C          65.8219   92.2671   12.3248 C.ar    1  UNL1        0.0085
      8 C          64.4574   91.6552   12.2080 C.ar    1  UNL1        0.0075
      9 C          64.1449   90.9681   13.5042 C.ar    1  UNL1        0.0355
     10 S          65.3165   91.1553   14.4222 S.2     1  UNL1       -0.0859
     11 C          66.3528   91.9581   13.6933 C.ar    1  UNL1        0.0355
@<TRIPOS>BOND
     1     1     2   ar
     2     2     3   ar
     3     3     4   ar
     4     4     5   ar
     5     5     7    1
     6     7     8   ar
     7     8     9   ar
     8     9    10   ar
     9    10    11   ar
    10     5     6   ar
    11     6     1   ar
    12    11     7   ar
@<TRIPOS>MOLECULE
*****
 11 12 0 0 0
SMALL
GASTEIGER

@<TRIPOS>ATOM
      1 C          62.8235   85.6016    8.5489 C.ar    1  UNL1        0.0207
      2 C          61.8966   86.7223    8.9161 C.ar    1  UNL1        0.0989
      3 N          61.3347   86.8065   10.3043 N.ar    1  UNL1       -0.2423
      4 C          61.6996   85.7701   11.3253 C.ar    1  UNL1        0.0989
      5 C          62.6265   84.6494   10.9581 C.ar    1  UNL1        0.0197
      6 C          63.1884   84.5652    9.5699 C.ar    1  UNL1        0.0032
      7 C          62.9915   83.6128   11.9792 C.ar    1  UNL1        0.0085
      8 C          63.2627   82.1631   11.7057 C.ar    1  UNL1        0.0075
      9 C          63.5881   81.4983   13.0103 C.ar    1  UNL1        0.0355
     10 S          63.5180   82.5372   14.0901 S.2     1  UNL1       -0.0859
     11 C          63.1493   83.8440   13.4528 C.ar    1  UNL1        0.0355
@<TRIPOS>BOND
     1     1     2   ar
     2     2     3   ar
     3     3     4   ar
     4     4     5   ar
     5     5     7    1
     6     7     8   ar
     7     8     9   ar
     8     9    10   ar
     9    10    11   ar
    10     5     6   ar
    11     6     1   ar
    12    11     7   ar
@<TRIPOS>MOLECULE
*****
 11 12 0 0 0
SMALL
GASTEIGER

@<TRIPOS>ATOM
      1 C          66.6440   91.6593   14.8981 C.ar    1  UNL1        0.0207
      2 C          67.2916   92.9174   14.4002 C.ar    1  UNL1        0.0989
      3 N          66.8065   93.5606   13.1349 N.ar    1  UNL1       -0.2423
      4 C          65.6738   92.9457   12.3675 C.ar    1  UNL1        0.0989
      5 C          65.0263   91.6877   12.8653 C.ar    1  UNL1        0.0197
      6 C          65.5114   91.0445   14.1306 C.ar    1  UNL1        0.0032
      7 C          63.8936   91.0727   12.0979 C.ar    1  UNL1        0.0085
      8 C          63.5420   91.3551   10.6673 C.ar    1  UNL1        0.0075
      9 C          62.3447   90.5244   10.3115 C.ar    1  UNL1        0.0355
     10 S          61.9564   89.7286   11.5223 S.2     1  UNL1       -0.0859
     11 C          62.9137   90.0675   12.6263 C.ar    1  UNL1        0.0355
@<TRIPOS>BOND
     1     1     2   ar
     2     2     3   ar
     3     3     4   ar
     4     4     5   ar
     5     5     7    1
     6     7     8   ar
     7     8     9   ar
     8     9    10   ar
     9    10    11   ar
    10     5     6   ar
    11     6     1   ar
    12    11     7   ar
@<TRIPOS>MOLECULE
*****
 11 12 0 0 0
SMALL
GASTEIGER

@<TRIPOS>ATOM
      1 C          63.5802   83.0783   12.9081 C.ar    1  UNL1        0.0207
      2 C          64.5178   82.3375   12.0016 C.ar    1  UNL1        0.0989
      3 N          64.6012   82.7020   10.5489 N.ar    1  UNL1       -0.2423
      4 C          63.7469   83.8074   10.0028 C.ar    1  UNL1        0.0989
      5 C          62.8092   84.5482   10.9094 C.ar    1  UNL1        0.0197
      6 C          62.7259   84.1837   12.3620 C.ar    1  UNL1        0.0032
      7 C          61.9549   85.6537   10.3633 C.ar    1  UNL1        0.0085
      8 C          61.1187   86.6023   11.1701 C.ar    1  UNL1        0.0075
      9 C          60.4337   87.5395   10.2201 C.ar    1  UNL1        0.0355
     10 S          60.8466   87.1699    8.8261 S.2     1  UNL1       -0.0859
     11 C          61.7867   86.0045    8.9147 C.ar    1  UNL1        0.0355
@<TRIPOS>BOND
     1     1     2   ar
     2     2     3   ar
     3     3     4   ar
     4     4     5   ar
     5     5     7    1
     6     7     8   ar
     7     8     9   ar
     8     9    10   ar
     9    10    11   ar
    10     5     6   ar
    11     6     1   ar
    12    11     7   ar
@<TRIPOS>MOLECULE
*****
 11 12 0 0 0
SMALL
GASTEIGER

@<TRIPOS>ATOM
      1 C          60.8448   86.7410    8.1779 C.ar    1  UNL1        0.0207
      2 C          60.0723   87.6986    9.0359 C.ar    1  UNL1        0.0989
      3 N          60.2233   87.6584   10.5278 N.ar    1  UNL1       -0.2423
      4 C          61.1468   86.6607   11.1616 C.ar    1  UNL1        0.0989
      5 C          61.9193   85.7032   10.3035 C.ar    1  UNL1        0.0197
      6 C          61.7683   85.7433    8.8116 C.ar    1  UNL1        0.0032
      7 C          62.8428   84.7054   10.9373 C.ar    1  UNL1        0.0085
      8 C          63.6557   83.6729   10.2139 C.ar    1  UNL1        0.0075
      9 C          64.4309   82.8943   11.2352 C.ar    1  UNL1        0.0355
     10 S          64.0971   83.4457   12.5897 S.2     1  UNL1       -0.0859
     11 C          63.1156   84.5650   12.4055 C.ar    1  UNL1        0.0355
@<TRIPOS>BOND
     1     1     2   ar
     2     2     3   ar
     3     3     4   ar
     4     4     5   ar
     5     5     7    1
     6     7     8   ar
     7     8     9   ar
     8     9    10   ar
     9    10    11   ar
    10     5     6   ar
    11     6     1   ar
    12    11     7   ar
