@<TRIPOS>MOLECULE
*****
 23 25 0 0 0
SMALL
GASTEIGER

@<TRIPOS>ATOM
      1 C          63.3079   84.1940   13.9267 C.3     1  UNL1        0.1883
      2 C          63.2278   84.3750   12.4399 C.ar    1  UNL1        0.0195
      3 C          64.0260   83.4869   11.5322 C.ar    1  UNL1        0.0002
      4 C          63.9460   83.6679   10.0453 C.ar    1  UNL1        0.0135
      5 C          63.0677   84.7370    9.4661 C.ar    1  UNL1        0.0850
      6 CL         62.9877   84.9181    7.9792 Cl      1  UNL1       -0.0799
      7 C          62.2694   85.6253   10.3738 C.ar    1  UNL1        0.1504
      8 F          61.3912   86.6944    9.7946 F       1  UNL1       -0.2033
      9 C          62.3495   85.4443   11.8607 C.ar    1  UNL1        0.0297
     10 O          64.3343   84.9472   14.7198 O.3     1  UNL1       -0.4747
     11 F          64.3372   90.1414   14.5752 F       1  UNL1       -0.2041
     12 C          63.9825   88.8615   15.2723 C.ar    1  UNL1        0.1432
     13 C          63.2745   88.8987   16.5941 C.ar    1  UNL1        0.0298
     14 C          62.9198   87.6187   17.2912 C.ar    1  UNL1        0.0054
     15 C          63.2731   86.3016   16.6665 C.ar    1  UNL1        0.0371
     16 C          63.9810   86.2644   15.3446 C.ar    1  UNL1        0.1411
     17 C          64.3357   87.5443   14.6475 C.ar    1  UNL1        0.0665
     18 C          62.3614   83.2597   14.6206 C.3     1  UNL1        0.0510
     19 C          62.2276   81.8417   14.1501 C.3     1  UNL1        0.0354
     20 C          61.0860   80.8834   13.9815 C.3     1  UNL1        0.0700
     21 N          62.0383   79.8364   13.4846 N.3     1  UNL1       -0.2974
     22 C          63.1799   80.7947   13.6532 C.3     1  UNL1        0.0700
     23 H          61.8748   79.5491   12.5197 H       1  UNL1        0.1232
@<TRIPOS>BOND
     1    11    12    1
     2    12    13   ar
     3    13    14   ar
     4    14    15   ar
     5    15    16   ar
     6    16    10    1
     7    10     1    1
     8     1    18    1
     9    18    19    1
    10    19    20    1
    11    20    21    1
    12    21    22    1
    13     1     2    1
    14     2     3   ar
    15     3     4   ar
    16     4     5   ar
    17     5     6    1
    18     5     7   ar
    19     7     8    1
    20     7     9   ar
    21    16    17   ar
    22    17    12   ar
    23    22    19    1
    24     9     2   ar
    25    21    23    1
@<TRIPOS>MOLECULE
*****
 23 25 0 0 0
SMALL
GASTEIGER

@<TRIPOS>ATOM
      1 C          62.0659   86.5240   10.6396 C.3     1  UNL1        0.1883
      2 C          62.5878   85.2590   11.2540 C.ar    1  UNL1        0.0195
      3 C          62.5131   85.0601   12.7388 C.ar    1  UNL1        0.0002
      4 C          63.0350   83.7951   13.3532 C.ar    1  UNL1        0.0135
      5 C          63.6315   82.7291   12.4828 C.ar    1  UNL1        0.0850
      6 CL         64.1534   81.4641   13.0972 Cl      1  UNL1       -0.0799
      7 C          63.7062   82.9280   10.9979 C.ar    1  UNL1        0.1504
      8 F          64.3028   81.8620   10.1275 F       1  UNL1       -0.2033
      9 C          63.1844   84.1930   10.3835 C.ar    1  UNL1        0.0297
     10 O          61.6497   87.6676   11.5165 O.3     1  UNL1       -0.4747
     11 F          64.9986   90.8739   13.8626 F       1  UNL1       -0.2041
     12 C          64.1205   90.5419   12.6927 C.ar    1  UNL1        0.1432
     13 C          64.0388   91.4810   11.5259 C.ar    1  UNL1        0.0298
     14 C          63.1607   91.1490   10.3560 C.ar    1  UNL1        0.0054
     15 C          62.3643   89.8779   10.3528 C.ar    1  UNL1        0.0371
     16 C          62.4461   88.9388   11.5196 C.ar    1  UNL1        0.1411
     17 C          63.3242   89.2708   12.6895 C.ar    1  UNL1        0.0665
     18 C          61.9602   86.6454    9.1482 C.3     1  UNL1        0.0510
     19 C          60.6144   86.6134    8.4866 C.3     1  UNL1        0.0354
     20 C          59.3385   87.3872    8.6400 C.3     1  UNL1        0.0700
     21 N          58.7110   86.5683    7.5510 N.3     1  UNL1       -0.2974
     22 C          59.9869   85.7946    7.3977 C.3     1  UNL1        0.0700
     23 H          58.4480   87.1056    6.7249 H       1  UNL1        0.1232
@<TRIPOS>BOND
     1    11    12    1
     2    12    13   ar
     3    13    14   ar
     4    14    15   ar
     5    15    16   ar
     6    16    10    1
     7    10     1    1
     8     1    18    1
     9    18    19    1
    10    19    20    1
    11    20    21    1
    12    21    22    1
    13     1     2    1
    14     2     3   ar
    15     3     4   ar
    16     4     5   ar
    17     5     6    1
    18     5     7   ar
    19     7     8    1
    20     7     9   ar
    21    16    17   ar
    22    17    12   ar
    23    22    19    1
    24     9     2   ar
    25    21    23    1
@<TRIPOS>MOLECULE
*****
 23 25 0 0 0
SMALL
GASTEIGER

@<TRIPOS>ATOM
      1 C          61.9933   87.0439   10.6514 C.3     1  UNL1        0.1883
      2 C          62.6008   88.2784   11.2490 C.ar    1  UNL1        0.0195
      3 C          62.5366   89.5805   10.5071 C.ar    1  UNL1        0.0002
      4 C          63.1441   90.8149   11.1047 C.ar    1  UNL1        0.0135
      5 C          63.8158   90.7473   12.4441 C.ar    1  UNL1        0.0850
      6 CL         64.4233   91.9817   13.0417 Cl      1  UNL1       -0.0799
      7 C          63.8800   89.4451   13.1861 C.ar    1  UNL1        0.1504
      8 F          64.5517   89.3775   14.5256 F       1  UNL1       -0.2033
      9 C          63.2725   88.2107   12.5885 C.ar    1  UNL1        0.0297
     10 O          61.5359   85.9267   11.5416 O.3     1  UNL1       -0.4747
     11 F          63.9749   83.0266   15.0970 F       1  UNL1       -0.2041
     12 C          63.6941   83.3578   13.6612 C.ar    1  UNL1        0.1432
     13 C          64.3521   82.5701   12.5673 C.ar    1  UNL1        0.0298
     14 C          64.0714   82.9013   11.1315 C.ar    1  UNL1        0.0054
     15 C          63.1327   84.0202   10.7896 C.ar    1  UNL1        0.0371
     16 C          62.4747   84.8078   11.8835 C.ar    1  UNL1        0.1411
     17 C          62.7554   84.4766   13.3193 C.ar    1  UNL1        0.0665
     18 C          61.8432   86.9268    9.1635 C.3     1  UNL1        0.0510
     19 C          60.5181   87.2071    8.5189 C.3     1  UNL1        0.0354
     20 C          59.4778   86.3762    7.8280 C.3     1  UNL1        0.0700
     21 N          58.6441   87.6035    7.6074 N.3     1  UNL1       -0.2974
     22 C          59.6844   88.4344    8.2984 C.3     1  UNL1        0.0700
     23 H          57.7421   87.5853    8.0834 H       1  UNL1        0.1232
@<TRIPOS>BOND
     1    11    12    1
     2    12    13   ar
     3    13    14   ar
     4    14    15   ar
     5    15    16   ar
     6    16    10    1
     7    10     1    1
     8     1    18    1
     9    18    19    1
    10    19    20    1
    11    20    21    1
    12    21    22    1
    13     1     2    1
    14     2     3   ar
    15     3     4   ar
    16     4     5   ar
    17     5     6    1
    18     5     7   ar
    19     7     8    1
    20     7     9   ar
    21    16    17   ar
    22    17    12   ar
    23    22    19    1
    24     9     2   ar
    25    21    23    1
@<TRIPOS>MOLECULE
*****
 23 25 0 0 0
SMALL
GASTEIGER

@<TRIPOS>ATOM
      1 C          63.4468   84.2232   13.9666 C.3     1  UNL1        0.1883
      2 C          63.3296   84.3804   12.4795 C.ar    1  UNL1        0.0195
      3 C          62.5000   85.4906   11.9058 C.ar    1  UNL1        0.0002
      4 C          62.3827   85.6478   10.4187 C.ar    1  UNL1        0.0135
      5 C          63.0952   84.6949    9.5053 C.ar    1  UNL1        0.0850
      6 CL         62.9779   84.8521    8.0181 Cl      1  UNL1       -0.0799
      7 C          63.9248   83.5846   10.0790 C.ar    1  UNL1        0.1504
      8 F          64.6372   82.6317    9.1656 F       1  UNL1       -0.2033
      9 C          64.0421   83.4274   11.5661 C.ar    1  UNL1        0.0297
     10 O          64.4586   85.0269   14.7283 O.3     1  UNL1       -0.4747
     11 F          62.3852   87.4238   18.8461 F       1  UNL1       -0.2041
     12 C          63.0072   87.4881   17.4827 C.ar    1  UNL1        0.1432
     13 C          63.2146   88.8150   16.8147 C.ar    1  UNL1        0.0298
     14 C          63.8366   88.8792   15.4512 C.ar    1  UNL1        0.0054
     15 C          64.2513   87.6166   14.7558 C.ar    1  UNL1        0.0371
     16 C          64.0439   86.2897   15.4238 C.ar    1  UNL1        0.1411
     17 C          63.4219   86.2254   16.7872 C.ar    1  UNL1        0.0665
     18 C          62.5522   83.2622   14.6921 C.3     1  UNL1        0.0510
     19 C          62.3725   81.8666   14.1726 C.3     1  UNL1        0.0354
     20 C          61.1928   80.9901   13.8727 C.3     1  UNL1        0.0700
     21 N          62.1185   79.8928   13.4379 N.3     1  UNL1       -0.2974
     22 C          63.2983   80.7694   13.7377 C.3     1  UNL1        0.0700
     23 H          62.0286   79.6375   12.4544 H       1  UNL1        0.1232
@<TRIPOS>BOND
     1    11    12    1
     2    12    13   ar
     3    13    14   ar
     4    14    15   ar
     5    15    16   ar
     6    16    10    1
     7    10     1    1
     8     1    18    1
     9    18    19    1
    10    19    20    1
    11    20    21    1
    12    21    22    1
    13     1     2    1
    14     2     3   ar
    15     3     4   ar
    16     4     5   ar
    17     5     6    1
    18     5     7   ar
    19     7     8    1
    20     7     9   ar
    21    16    17   ar
    22    17    12   ar
    23    22    19    1
    24     9     2   ar
    25    21    23    1
@<TRIPOS>MOLECULE
*****
 23 25 0 0 0
SMALL
GASTEIGER

@<TRIPOS>ATOM
      1 C          64.1106   90.9099   14.0967 C.3     1  UNL1        0.1883
      2 C          65.4206   91.5171   14.5031 C.ar    1  UNL1        0.0195
      3 C          65.5379   92.2414   15.8114 C.ar    1  UNL1        0.0002
      4 C          66.8479   92.8485   16.2177 C.ar    1  UNL1        0.0135
      5 C          68.0407   92.7314   15.3158 C.ar    1  UNL1        0.0850
      6 CL         69.3508   93.3385   15.7222 Cl      1  UNL1       -0.0799
      7 C          67.9235   92.0071   14.0075 C.ar    1  UNL1        0.1504
      8 F          69.1163   91.8900   13.1056 F       1  UNL1       -0.2033
      9 C          66.6135   91.3999   13.6011 C.ar    1  UNL1        0.0297
     10 O          63.2297   90.2680   15.1272 O.3     1  UNL1       -0.4747
     11 F          62.5059   86.3546   18.4680 F       1  UNL1       -0.2041
     12 C          63.0949   86.8824   17.1935 C.ar    1  UNL1        0.1432
     13 C          63.9111   85.9814   16.3148 C.ar    1  UNL1        0.0298
     14 C          64.5001   86.5093   15.0403 C.ar    1  UNL1        0.0054
     15 C          64.2730   87.9381   14.6444 C.ar    1  UNL1        0.0371
     16 C          63.4568   88.8391   15.5230 C.ar    1  UNL1        0.1411
     17 C          62.8678   88.3113   16.7976 C.ar    1  UNL1        0.0665
     18 C          63.6815   90.9447   12.6597 C.3     1  UNL1        0.0510
     19 C          62.6440   89.9818   12.1633 C.3     1  UNL1        0.0354
     20 C          62.6742   88.6132   11.5500 C.3     1  UNL1        0.0700
     21 N          61.1768   88.6200   11.4613 N.3     1  UNL1       -0.2974
     22 C          61.1467   89.9886   12.0746 C.3     1  UNL1        0.0700
     23 H          60.7230   87.9011   12.0248 H       1  UNL1        0.1232
@<TRIPOS>BOND
     1    11    12    1
     2    12    13   ar
     3    13    14   ar
     4    14    15   ar
     5    15    16   ar
     6    16    10    1
     7    10     1    1
     8     1    18    1
     9    18    19    1
    10    19    20    1
    11    20    21    1
    12    21    22    1
    13     1     2    1
    14     2     3   ar
    15     3     4   ar
    16     4     5   ar
    17     5     6    1
    18     5     7   ar
    19     7     8    1
    20     7     9   ar
    21    16    17   ar
    22    17    12   ar
    23    22    19    1
    24     9     2   ar
    25    21    23    1
@<TRIPOS>MOLECULE
*****
 23 25 0 0 0
SMALL
GASTEIGER

@<TRIPOS>ATOM
      1 C          65.0129   91.8095   12.9039 C.3     1  UNL1        0.1883
      2 C          64.0805   90.9794   12.0723 C.ar    1  UNL1        0.0195
      3 C          63.4933   91.5451   10.8133 C.ar    1  UNL1        0.0002
      4 C          62.5609   90.7150    9.9817 C.ar    1  UNL1        0.0135
      5 C          62.2157   89.3192   10.4091 C.ar    1  UNL1        0.0850
      6 CL         61.2832   88.4892    9.5775 Cl      1  UNL1       -0.0799
      7 C          62.8029   88.7535   11.6682 C.ar    1  UNL1        0.1504
      8 F          62.4577   87.3578   12.0956 F       1  UNL1       -0.2033
      9 C          63.7353   89.5836   12.4998 C.ar    1  UNL1        0.0297
     10 O          65.4135   93.1788   12.4408 O.3     1  UNL1       -0.4747
     11 F          67.6371   96.1151    8.7756 F       1  UNL1       -0.2041
     12 C          67.5116   94.8014    9.4886 C.ar    1  UNL1        0.1432
     13 C          68.3722   93.6421    9.0821 C.ar    1  UNL1        0.0298
     14 C          68.2467   92.3284    9.7951 C.ar    1  UNL1        0.0054
     15 C          67.2605   92.1740   10.9147 C.ar    1  UNL1        0.0371
     16 C          66.3998   93.3332   11.3212 C.ar    1  UNL1        0.1411
     17 C          66.5253   94.6469   10.6082 C.ar    1  UNL1        0.0665
     18 C          65.5448   91.2702   14.1987 C.3     1  UNL1        0.0510
     19 C          66.6612   91.9806   14.9049 C.3     1  UNL1        0.0354
     20 C          68.1101   92.2350   14.6114 C.3     1  UNL1        0.0700
     21 N          68.2401   92.9854   15.9037 N.3     1  UNL1       -0.2974
     22 C          66.7913   92.7311   16.1972 C.3     1  UNL1        0.0700
     23 H          68.4753   93.9715   15.7908 H       1  UNL1        0.1232
@<TRIPOS>BOND
     1    11    12    1
     2    12    13   ar
     3    13    14   ar
     4    14    15   ar
     5    15    16   ar
     6    16    10    1
     7    10     1    1
     8     1    18    1
     9    18    19    1
    10    19    20    1
    11    20    21    1
    12    21    22    1
    13     1     2    1
    14     2     3   ar
    15     3     4   ar
    16     4     5   ar
    17     5     6    1
    18     5     7   ar
    19     7     8    1
    20     7     9   ar
    21    16    17   ar
    22    17    12   ar
    23    22    19    1
    24     9     2   ar
    25    21    23    1
@<TRIPOS>MOLECULE
*****
 23 25 0 0 0
SMALL
GASTEIGER

@<TRIPOS>ATOM
      1 C          65.1019   91.6070   13.2957 C.3     1  UNL1        0.1883
      2 C          64.1893   90.6194   12.6311 C.ar    1  UNL1        0.0195
      3 C          64.0020   89.2544   13.2241 C.ar    1  UNL1        0.0002
      4 C          63.0894   88.2667   12.5596 C.ar    1  UNL1        0.0135
      5 C          62.3640   88.6440   11.3021 C.ar    1  UNL1        0.0850
      6 CL         61.4514   87.6563   10.6376 Cl      1  UNL1       -0.0799
      7 C          62.5512   90.0091   10.7090 C.ar    1  UNL1        0.1504
      8 F          61.8259   90.3864    9.4515 F       1  UNL1       -0.2033
      9 C          63.4639   90.9967   11.3736 C.ar    1  UNL1        0.0297
     10 O          65.1240   93.0348   12.8363 O.3     1  UNL1       -0.4747
     11 F          68.4327   91.7721    9.0339 F       1  UNL1       -0.2041
     12 C          67.6659   92.8114    9.7967 C.ar    1  UNL1        0.1432
     13 C          67.7867   94.2586    9.4213 C.ar    1  UNL1        0.0298
     14 C          67.0199   95.2978   10.1841 C.ar    1  UNL1        0.0054
     15 C          66.1324   94.8899   11.3224 C.ar    1  UNL1        0.0371
     16 C          66.0116   93.4427   11.6979 C.ar    1  UNL1        0.1411
     17 C          66.7784   92.4035   10.9351 C.ar    1  UNL1        0.0665
     18 C          65.9925   91.1669   14.4196 C.3     1  UNL1        0.0510
     19 C          67.0662   92.0825   14.9284 C.3     1  UNL1        0.0354
     20 C          67.1919   93.0308   16.0838 C.3     1  UNL1        0.0700
     21 N          68.5846   93.3774   15.6478 N.3     1  UNL1       -0.2974
     22 C          68.4590   92.4291   14.4924 C.3     1  UNL1        0.0700
     23 H          69.3074   93.1209   16.3203 H       1  UNL1        0.1232
@<TRIPOS>BOND
     1    11    12    1
     2    12    13   ar
     3    13    14   ar
     4    14    15   ar
     5    15    16   ar
     6    16    10    1
     7    10     1    1
     8     1    18    1
     9    18    19    1
    10    19    20    1
    11    20    21    1
    12    21    22    1
    13     1     2    1
    14     2     3   ar
    15     3     4   ar
    16     4     5   ar
    17     5     6    1
    18     5     7   ar
    19     7     8    1
    20     7     9   ar
    21    16    17   ar
    22    17    12   ar
    23    22    19    1
    24     9     2   ar
    25    21    23    1
@<TRIPOS>MOLECULE
*****
 23 25 0 0 0
SMALL
GASTEIGER

@<TRIPOS>ATOM
      1 C          63.6702   89.9743   13.3839 C.3     1  UNL1        0.1883
      2 C          64.4088   91.1502   12.8165 C.ar    1  UNL1        0.0195
      3 C          64.2144   91.5359   11.3801 C.ar    1  UNL1        0.0002
      4 C          64.9531   92.7118   10.8128 C.ar    1  UNL1        0.0135
      5 C          65.8860   93.5018   11.6819 C.ar    1  UNL1        0.0850
      6 CL         66.6246   94.6777   11.1145 Cl      1  UNL1       -0.0799
      7 C          66.0804   93.1161   13.1184 C.ar    1  UNL1        0.1504
      8 F          67.0133   93.9061   13.9875 F       1  UNL1       -0.2033
      9 C          65.3417   91.9402   13.6857 C.ar    1  UNL1        0.0297
     10 O          62.1989   89.8217   13.1350 O.3     1  UNL1       -0.4747
     11 F          62.5213   86.6897    9.0014 F       1  UNL1       -0.2041
     12 C          61.8679   87.8361    9.7148 C.ar    1  UNL1        0.1432
     13 C          60.7224   88.5629    9.0748 C.ar    1  UNL1        0.0298
     14 C          60.0691   89.7093    9.7882 C.ar    1  UNL1        0.0054
     15 C          60.5612   90.1289   11.1415 C.ar    1  UNL1        0.0371
     16 C          61.7067   89.4021   11.7815 C.ar    1  UNL1        0.1411
     17 C          62.3600   88.2557   11.0682 C.ar    1  UNL1        0.0665
     18 C          64.4029   88.9511   14.2001 C.3     1  UNL1        0.0510
     19 C          63.7829   88.4069   15.4529 C.3     1  UNL1        0.0354
     20 C          63.6040   87.0381   16.0397 C.3     1  UNL1        0.0700
     21 N          62.9060   87.6373   17.2245 N.3     1  UNL1       -0.2974
     22 C          63.0849   89.0061   16.6377 C.3     1  UNL1        0.0700
     23 H          63.3931   87.4969   18.1097 H       1  UNL1        0.1232
@<TRIPOS>BOND
     1    11    12    1
     2    12    13   ar
     3    13    14   ar
     4    14    15   ar
     5    15    16   ar
     6    16    10    1
     7    10     1    1
     8     1    18    1
     9    18    19    1
    10    19    20    1
    11    20    21    1
    12    21    22    1
    13     1     2    1
    14     2     3   ar
    15     3     4   ar
    16     4     5   ar
    17     5     6    1
    18     5     7   ar
    19     7     8    1
    20     7     9   ar
    21    16    17   ar
    22    17    12   ar
    23    22    19    1
    24     9     2   ar
    25    21    23    1
@<TRIPOS>MOLECULE
*****
 23 25 0 0 0
SMALL
GASTEIGER

@<TRIPOS>ATOM
      1 C          63.1142   84.0065   11.7915 C.3     1  UNL1        0.1883
      2 C          62.4531   85.0701   10.9657 C.ar    1  UNL1        0.0195
      3 C          62.7623   85.1839    9.5024 C.ar    1  UNL1        0.0002
      4 C          62.1012   86.2474    8.6766 C.ar    1  UNL1        0.0135
      5 C          61.1309   87.1971    9.3142 C.ar    1  UNL1        0.0850
      6 CL         60.4698   88.2606    8.4884 Cl      1  UNL1       -0.0799
      7 C          60.8216   87.0833   10.7776 C.ar    1  UNL1        0.1504
      8 F          59.8513   88.0329   11.4152 F       1  UNL1       -0.2033
      9 C          61.4827   86.0198   11.6034 C.ar    1  UNL1        0.0297
     10 O          64.2140   84.3718   12.7438 O.3     1  UNL1       -0.4747
     11 F          64.2903   88.7612   15.5237 F       1  UNL1       -0.2041
     12 C          63.9341   87.3095   15.3974 C.ar    1  UNL1        0.1432
     13 C          63.2599   86.6010   16.5346 C.ar    1  UNL1        0.0298
     14 C          62.9037   85.1494   16.4082 C.ar    1  UNL1        0.0054
     15 C          63.2217   84.4063   15.1447 C.ar    1  UNL1        0.0371
     16 C          63.8960   85.1149   14.0074 C.ar    1  UNL1        0.1411
     17 C          64.2522   86.5665   14.1338 C.ar    1  UNL1        0.0665
     18 C          62.6755   82.5777   11.6648 C.3     1  UNL1        0.0510
     19 C          62.6187   81.7001   12.8799 C.3     1  UNL1        0.0354
     20 C          61.5251   81.1973   13.7750 C.3     1  UNL1        0.0700
     21 N          62.5384   80.4589   14.5984 N.3     1  UNL1       -0.2974
     22 C          63.6321   80.9617   13.7033 C.3     1  UNL1        0.0700
     23 H          62.4247   79.4453   14.5880 H       1  UNL1        0.1232
@<TRIPOS>BOND
     1    11    12    1
     2    12    13   ar
     3    13    14   ar
     4    14    15   ar
     5    15    16   ar
     6    16    10    1
     7    10     1    1
     8     1    18    1
     9    18    19    1
    10    19    20    1
    11    20    21    1
    12    21    22    1
    13     1     2    1
    14     2     3   ar
    15     3     4   ar
    16     4     5   ar
    17     5     6    1
    18     5     7   ar
    19     7     8    1
    20     7     9   ar
    21    16    17   ar
    22    17    12   ar
    23    22    19    1
    24     9     2   ar
    25    21    23    1
