@<TRIPOS>MOLECULE
*****
 29 32 0 0 0
SMALL
GASTEIGER

@<TRIPOS>ATOM
      1 C          63.3275   86.7620   13.0439 C.ar    1  UNL1        0.0811
      2 C          62.5022   86.3686   11.8548 C.ar    1  UNL1        0.0338
      3 C          62.0879   87.4055   10.8532 C.ar    1  UNL1        0.0728
      4 C          62.4989   88.8359   11.0408 C.ar    1  UNL1        0.0961
      5 N          63.3243   89.2293   12.2299 N.ar    1  UNL1       -0.2907
      6 C          63.8751   90.5511   12.6764 C.ar    1  UNL1        0.0567
      7 C          63.7017   91.8627   11.9695 C.3     1  UNL1        0.0517
      8 C          64.6299   90.3311   13.9539 C.ar    1  UNL1        0.0730
      9 C          65.3437   91.3841   14.7488 C.3     1  UNL1        0.0534
     10 N          64.5455   88.8733   14.2970 N.ar    1  UNL1       -0.2299
     11 C          63.7386   88.1924   13.2315 C.ar    1  UNL1        0.1604
     12 N          61.2626   87.0122    9.6641 N.am    1  UNL1       -0.2572
     13 C          59.8968   87.6016    9.4709 C.3     1  UNL1        0.0983
     14 C          59.0715   87.2083    8.2818 C.3     1  UNL1        0.0224
     15 C          59.6118   86.2254    7.2858 C.3     1  UNL1        0.0113
     16 C          60.9776   85.6360    7.4789 C.3     1  UNL1        0.0857
     17 C          61.8029   86.0294    8.6681 C.2     1  UNL1        0.2294
     18 O          63.1687   85.4399    8.8612 O.2     1  UNL1       -0.2745
     19 N          63.7419   85.7251   14.0455 N.pl3   1  UNL1       -0.3267
     20 H          63.5834   85.8767   15.0052 H       1  UNL1        0.1472
     21 C          64.3977   84.4572   13.5847 C.3     1  UNL1        0.1137
     22 C          64.5935   82.9005   11.0277 C.3     1  UNL1        0.0307
     23 C          63.6771   82.4357   12.1204 C.ar    1  UNL1       -0.0245
     24 C          62.8585   81.1925   11.9346 C.ar    1  UNL1       -0.0045
     25 C          61.9421   80.7277   13.0274 C.ar    1  UNL1       -0.0007
     26 C          61.8441   81.5060   14.3059 C.ar    1  UNL1       -0.0045
     27 C          62.6627   82.7492   14.4917 C.ar    1  UNL1       -0.0245
     28 C          62.5648   83.5275   15.7702 C.3     1  UNL1        0.0307
     29 C          63.5792   83.2140   13.3989 C.ar    1  UNL1       -0.0105
@<TRIPOS>BOND
     1    22    23    1
     2    23    24   ar
     3    24    25   ar
     4    25    26   ar
     5    26    27   ar
     6    27    28    1
     7    27    29   ar
     8    29    21    1
     9    21    19    1
    10    19     1    1
    11     1     2   ar
    12     2     3   ar
    13     3    12    1
    14    12    13    1
    15    13    14    1
    16    14    15    1
    17    15    16    1
    18    16    17    1
    19    17    18    2
    20     3     4   ar
    21     4     5   ar
    22     5     6   ar
    23     6     7    1
    24     6     8   ar
    25     8     9    1
    26     8    10   ar
    27    10    11   ar
    28    29    23   ar
    29    11     1   ar
    30    17    12   am
    31    11     5   ar
    32    19    20    1
@<TRIPOS>MOLECULE
*****
 29 32 0 0 0
SMALL
GASTEIGER

@<TRIPOS>ATOM
      1 C          63.3231   86.7593   13.0434 C.ar    1  UNL1        0.0811
      2 C          62.4994   86.3677   11.8525 C.ar    1  UNL1        0.0338
      3 C          62.0876   87.4060   10.8514 C.ar    1  UNL1        0.0728
      4 C          62.4993   88.8358   11.0411 C.ar    1  UNL1        0.0961
      5 N          63.3230   89.2274   12.2320 N.ar    1  UNL1       -0.2907
      6 C          63.8740   90.5483   12.6807 C.ar    1  UNL1        0.0567
      7 C          63.7027   91.8607   11.9749 C.3     1  UNL1        0.0517
      8 C          64.6265   90.3265   13.9593 C.ar    1  UNL1        0.0730
      9 C          65.3398   91.3782   14.7564 C.3     1  UNL1        0.0534
     10 N          64.5405   88.8684   14.3007 N.ar    1  UNL1       -0.2299
     11 C          63.7348   88.1891   13.2331 C.ar    1  UNL1        0.1604
     12 N          61.2639   87.0144    9.6604 N.am    1  UNL1       -0.2572
     13 C          59.8984   87.6041    9.4663 C.3     1  UNL1        0.0983
     14 C          59.0747   87.2126    8.2754 C.3     1  UNL1        0.0224
     15 C          59.6166   86.2313    7.2786 C.3     1  UNL1        0.0113
     16 C          60.9821   85.6416    7.4727 C.3     1  UNL1        0.0857
     17 C          61.8057   86.0332    8.6637 C.2     1  UNL1        0.2294
     18 O          63.1712   85.4435    8.8578 O.2     1  UNL1       -0.2745
     19 N          63.7350   85.7210   14.0446 N.pl3   1  UNL1       -0.3267
     20 H          63.5740   85.8713   15.0042 H       1  UNL1        0.1472
     21 C          64.3922   84.4538   13.5838 C.3     1  UNL1        0.1137
     22 C          62.5702   83.5262   15.7792 C.3     1  UNL1        0.0307
     23 C          62.6653   82.7441   14.5028 C.ar    1  UNL1       -0.0245
     24 C          61.8494   81.4981   14.3241 C.ar    1  UNL1       -0.0045
     25 C          61.9446   80.7160   13.0477 C.ar    1  UNL1       -0.0007
     26 C          62.8555   81.1798   11.9500 C.ar    1  UNL1       -0.0045
     27 C          63.6714   82.4257   12.1287 C.ar    1  UNL1       -0.0245
     28 C          64.5824   82.8896   11.0310 C.3     1  UNL1        0.0307
     29 C          63.5763   83.2079   13.4051 C.ar    1  UNL1       -0.0105
@<TRIPOS>BOND
     1    22    23    1
     2    23    24   ar
     3    24    25   ar
     4    25    26   ar
     5    26    27   ar
     6    27    28    1
     7    27    29   ar
     8    29    21    1
     9    21    19    1
    10    19     1    1
    11     1     2   ar
    12     2     3   ar
    13     3    12    1
    14    12    13    1
    15    13    14    1
    16    14    15    1
    17    15    16    1
    18    16    17    1
    19    17    18    2
    20     3     4   ar
    21     4     5   ar
    22     5     6   ar
    23     6     7    1
    24     6     8   ar
    25     8     9    1
    26     8    10   ar
    27    10    11   ar
    28    29    23   ar
    29    11     1   ar
    30    17    12   am
    31    11     5   ar
    32    19    20    1
@<TRIPOS>MOLECULE
*****
 29 32 0 0 0
SMALL
GASTEIGER

@<TRIPOS>ATOM
      1 C          63.6819   87.1665   13.6408 C.ar    1  UNL1        0.0811
      2 C          64.4041   88.2434   14.3950 C.ar    1  UNL1        0.0338
      3 C          64.3797   89.6564   13.8922 C.ar    1  UNL1        0.0728
      4 C          63.6333   89.9925   12.6353 C.ar    1  UNL1        0.0961
      5 N          62.9112   88.9156   11.8811 N.ar    1  UNL1       -0.2907
      6 C          62.0973   88.9455   10.6215 C.ar    1  UNL1        0.0567
      7 C          61.8122   90.1572    9.7846 C.3     1  UNL1        0.0517
      8 C          61.6186   87.5509   10.3457 C.ar    1  UNL1        0.0730
      9 C          60.7707   87.1232    9.1846 C.3     1  UNL1        0.0534
     10 N          62.1366   86.6591   11.4349 N.ar    1  UNL1       -0.2299
     11 C          62.9355   87.5026   12.3839 C.ar    1  UNL1        0.1604
     12 N          65.1019   90.7333   14.6464 N.am    1  UNL1       -0.2572
     13 C          66.4419   91.2118   14.1717 C.3     1  UNL1        0.0983
     14 C          67.1641   92.2887   14.9258 C.3     1  UNL1        0.0224
     15 C          66.5462   92.8872   16.1547 C.3     1  UNL1        0.0113
     16 C          65.2061   92.4087   16.6294 C.3     1  UNL1        0.0857
     17 C          64.4840   91.3318   15.8752 C.2     1  UNL1        0.2294
     18 O          63.1439   90.8533   16.3499 O.2     1  UNL1       -0.2745
     19 N          63.7062   85.7534   14.1435 N.pl3   1  UNL1       -0.3267
     20 H          63.3517   85.5428   15.0375 H       1  UNL1        0.1472
     21 C          64.2707   84.6612   13.2841 C.3     1  UNL1        0.1137
     22 C          62.7255   83.6101   15.6309 C.3     1  UNL1        0.0307
     23 C          62.7902   82.8169   14.3595 C.ar    1  UNL1       -0.0245
     24 C          62.0823   81.4980   14.2614 C.ar    1  UNL1       -0.0045
     25 C          62.1470   80.7048   12.9900 C.ar    1  UNL1       -0.0007
     26 C          62.9196   81.2304   11.8166 C.ar    1  UNL1       -0.0045
     27 C          63.6275   82.5491   11.9146 C.ar    1  UNL1       -0.0245
     28 C          64.4001   83.0747   10.7412 C.3     1  UNL1        0.0307
     29 C          63.5628   83.3424   13.1861 C.ar    1  UNL1       -0.0105
@<TRIPOS>BOND
     1    22    23    1
     2    23    24   ar
     3    24    25   ar
     4    25    26   ar
     5    26    27   ar
     6    27    28    1
     7    27    29   ar
     8    29    21    1
     9    21    19    1
    10    19     1    1
    11     1     2   ar
    12     2     3   ar
    13     3    12    1
    14    12    13    1
    15    13    14    1
    16    14    15    1
    17    15    16    1
    18    16    17    1
    19    17    18    2
    20     3     4   ar
    21     4     5   ar
    22     5     6   ar
    23     6     7    1
    24     6     8   ar
    25     8     9    1
    26     8    10   ar
    27    10    11   ar
    28    29    23   ar
    29    11     1   ar
    30    17    12   am
    31    11     5   ar
    32    19    20    1
@<TRIPOS>MOLECULE
*****
 29 32 0 0 0
SMALL
GASTEIGER

@<TRIPOS>ATOM
      1 C          63.6681   87.1702   13.6289 C.ar    1  UNL1        0.0811
      2 C          64.3870   88.2447   14.3895 C.ar    1  UNL1        0.0338
      3 C          64.3593   89.6604   13.8947 C.ar    1  UNL1        0.0728
      4 C          63.6127   90.0016   12.6392 C.ar    1  UNL1        0.0961
      5 N          62.8938   88.9271   11.8786 N.ar    1  UNL1       -0.2907
      6 C          62.0806   88.9619   10.6187 C.ar    1  UNL1        0.0567
      7 C          61.7928   90.1776    9.7884 C.3     1  UNL1        0.0517
      8 C          61.6056   87.5677   10.3348 C.ar    1  UNL1        0.0730
      9 C          60.7595   87.1443    9.1708 C.3     1  UNL1        0.0534
     10 N          62.1254   86.6712   11.4193 N.ar    1  UNL1       -0.2299
     11 C          62.9215   87.5114   12.3734 C.ar    1  UNL1        0.1604
     12 N          65.0782   90.7350   14.6553 N.am    1  UNL1       -0.2572
     13 C          66.4127   91.2267   14.1784 C.3     1  UNL1        0.0983
     14 C          67.1316   92.3012   14.9390 C.3     1  UNL1        0.0224
     15 C          66.5161   92.8841   16.1765 C.3     1  UNL1        0.0113
     16 C          65.1816   92.3924   16.6534 C.3     1  UNL1        0.0857
     17 C          64.4627   91.3178   15.8928 C.2     1  UNL1        0.2294
     18 O          63.1282   90.8261   16.3697 O.2     1  UNL1       -0.2745
     19 N          63.6958   85.7543   14.1237 N.pl3   1  UNL1       -0.3267
     20 H          63.3407   85.5377   15.0160 H       1  UNL1        0.1472
     21 C          64.2646   84.6686   13.2589 C.3     1  UNL1        0.1137
     22 C          64.3921   83.0824   10.7157 C.3     1  UNL1        0.0307
     23 C          63.6342   82.5491   11.8951 C.ar    1  UNL1       -0.0245
     24 C          62.9399   81.2226   11.8030 C.ar    1  UNL1       -0.0045
     25 C          62.1819   80.6892   12.9823 C.ar    1  UNL1       -0.0007
     26 C          62.1182   81.4823   14.2539 C.ar    1  UNL1       -0.0045
     27 C          62.8124   82.8088   14.3461 C.ar    1  UNL1       -0.0245
     28 C          62.7486   83.6019   15.6177 C.3     1  UNL1        0.0307
     29 C          63.5704   83.3422   13.1667 C.ar    1  UNL1       -0.0105
@<TRIPOS>BOND
     1    22    23    1
     2    23    24   ar
     3    24    25   ar
     4    25    26   ar
     5    26    27   ar
     6    27    28    1
     7    27    29   ar
     8    29    21    1
     9    21    19    1
    10    19     1    1
    11     1     2   ar
    12     2     3   ar
    13     3    12    1
    14    12    13    1
    15    13    14    1
    16    14    15    1
    17    15    16    1
    18    16    17    1
    19    17    18    2
    20     3     4   ar
    21     4     5   ar
    22     5     6   ar
    23     6     7    1
    24     6     8   ar
    25     8     9    1
    26     8    10   ar
    27    10    11   ar
    28    29    23   ar
    29    11     1   ar
    30    17    12   am
    31    11     5   ar
    32    19    20    1
@<TRIPOS>MOLECULE
*****
 29 32 0 0 0
SMALL
GASTEIGER

@<TRIPOS>ATOM
      1 C          62.1264   88.4419   11.3858 C.ar    1  UNL1        0.0811
      2 C          62.6501   87.2115   12.0654 C.ar    1  UNL1        0.0338
      3 C          62.3587   85.8565   11.4919 C.ar    1  UNL1        0.0728
      4 C          61.5436   85.7319   10.2389 C.ar    1  UNL1        0.0961
      5 N          61.0199   86.9622    9.5593 N.ar    1  UNL1       -0.2907
      6 C          60.1948   87.1507    8.3209 C.ar    1  UNL1        0.0567
      7 C          59.6788   86.0593    7.4307 C.3     1  UNL1        0.0517
      8 C          59.9762   88.6223    8.1291 C.ar    1  UNL1        0.0730
      9 C          59.2032   89.2607    7.0132 C.3     1  UNL1        0.0534
     10 N          60.6662   89.3433    9.2488 N.ar    1  UNL1       -0.2299
     11 C          61.3113   88.3173   10.1328 C.ar    1  UNL1        0.1604
     12 N          62.8824   84.6260   12.1715 N.am    1  UNL1       -0.2572
     13 C          62.6407   84.4184   13.6372 C.3     1  UNL1        0.0983
     14 C          63.1644   83.1880   14.3168 C.3     1  UNL1        0.0224
     15 C          63.9297   82.1651   13.5306 C.3     1  UNL1        0.0113
     16 C          64.1713   82.3727   12.0648 C.3     1  UNL1        0.0857
     17 C          63.6476   83.6032   11.3852 C.2     1  UNL1        0.2294
     18 O          63.8893   83.8108    9.9194 O.2     1  UNL1       -0.2745
     19 N          62.4178   89.7970   11.9593 N.pl3   1  UNL1       -0.3267
     20 H          61.7771   90.5336   11.8319 H       1  UNL1        0.1472
     21 C          63.6853   90.0298   12.7269 C.3     1  UNL1        0.1137
     22 C          63.5182   91.3942   10.0604 C.3     1  UNL1        0.0307
     23 C          64.4287   91.9339   11.1233 C.ar    1  UNL1       -0.0245
     24 C          65.2557   93.1558   10.8529 C.ar    1  UNL1       -0.0045
     25 C          66.1661   93.6955   11.9158 C.ar    1  UNL1       -0.0007
     26 C          66.2496   93.0133   13.2491 C.ar    1  UNL1       -0.0045
     27 C          65.4227   91.7914   13.5195 C.ar    1  UNL1       -0.0245
     28 C          65.5062   91.1093   14.8527 C.3     1  UNL1        0.0307
     29 C          64.5122   91.2517   12.4565 C.ar    1  UNL1       -0.0105
@<TRIPOS>BOND
     1    22    23    1
     2    23    24   ar
     3    24    25   ar
     4    25    26   ar
     5    26    27   ar
     6    27    28    1
     7    27    29   ar
     8    29    21    1
     9    21    19    1
    10    19     1    1
    11     1     2   ar
    12     2     3   ar
    13     3    12    1
    14    12    13    1
    15    13    14    1
    16    14    15    1
    17    15    16    1
    18    16    17    1
    19    17    18    2
    20     3     4   ar
    21     4     5   ar
    22     5     6   ar
    23     6     7    1
    24     6     8   ar
    25     8     9    1
    26     8    10   ar
    27    10    11   ar
    28    29    23   ar
    29    11     1   ar
    30    17    12   am
    31    11     5   ar
    32    19    20    1
@<TRIPOS>MOLECULE
*****
 29 32 0 0 0
SMALL
GASTEIGER

@<TRIPOS>ATOM
      1 C          63.2443   90.9144   11.1860 C.ar    1  UNL1        0.0811
      2 C          64.0785   91.8891   10.4088 C.ar    1  UNL1        0.0338
      3 C          65.1559   92.6717   11.0992 C.ar    1  UNL1        0.0728
      4 C          65.3991   92.4796   12.5668 C.ar    1  UNL1        0.0961
      5 N          64.5649   91.5049   13.3440 N.ar    1  UNL1       -0.2907
      6 C          64.5734   91.1061   14.7900 C.ar    1  UNL1        0.0567
      7 C          65.4926   91.6422   15.8471 C.3     1  UNL1        0.0517
      8 C          63.5011   90.0770   14.9933 C.ar    1  UNL1        0.0730
      9 C          63.1599   89.4034   16.2894 C.3     1  UNL1        0.0534
     10 N          62.8300   89.8398   13.6729 N.ar    1  UNL1       -0.2299
     11 C          63.4875   90.7224   12.6536 C.ar    1  UNL1        0.1604
     12 N          65.9901   93.6464   10.3219 N.am    1  UNL1       -0.2572
     13 C          65.5182   95.0584   10.1386 C.3     1  UNL1        0.0983
     14 C          66.3523   96.0331    9.3614 C.3     1  UNL1        0.0224
     15 C          67.6586   95.5958    8.7675 C.3     1  UNL1        0.0113
     16 C          68.1305   94.1839    8.9508 C.3     1  UNL1        0.0857
     17 C          67.2963   93.2091    9.7281 C.2     1  UNL1        0.2294
     18 O          67.7683   91.7972    9.9114 O.2     1  UNL1       -0.2745
     19 N          62.1668   90.1318   10.4956 N.pl3   1  UNL1       -0.3267
     20 H          61.3675   90.5922   10.1516 H       1  UNL1        0.1472
     21 C          62.3072   88.6477   10.3295 C.3     1  UNL1        0.1137
     22 C          62.8954   85.7998    9.5920 C.3     1  UNL1        0.0307
     23 C          61.6785   86.4815    9.0401 C.ar    1  UNL1       -0.0245
     24 C          60.7557   85.7393    8.1194 C.ar    1  UNL1       -0.0045
     25 C          59.5389   86.4210    7.5675 C.ar    1  UNL1       -0.0007
     26 C          59.2448   87.8449    7.9363 C.ar    1  UNL1       -0.0045
     27 C          60.1676   88.5871    8.8569 C.ar    1  UNL1       -0.0245
     28 C          59.8735   90.0110    9.2256 C.3     1  UNL1        0.0307
     29 C          61.3845   87.9054    9.4088 C.ar    1  UNL1       -0.0105
@<TRIPOS>BOND
     1    22    23    1
     2    23    24   ar
     3    24    25   ar
     4    25    26   ar
     5    26    27   ar
     6    27    28    1
     7    27    29   ar
     8    29    21    1
     9    21    19    1
    10    19     1    1
    11     1     2   ar
    12     2     3   ar
    13     3    12    1
    14    12    13    1
    15    13    14    1
    16    14    15    1
    17    15    16    1
    18    16    17    1
    19    17    18    2
    20     3     4   ar
    21     4     5   ar
    22     5     6   ar
    23     6     7    1
    24     6     8   ar
    25     8     9    1
    26     8    10   ar
    27    10    11   ar
    28    29    23   ar
    29    11     1   ar
    30    17    12   am
    31    11     5   ar
    32    19    20    1
@<TRIPOS>MOLECULE
*****
 29 32 0 0 0
SMALL
GASTEIGER

@<TRIPOS>ATOM
      1 C          62.2764   88.1390   11.6791 C.ar    1  UNL1        0.0811
      2 C          62.8097   86.8656   12.2656 C.ar    1  UNL1        0.0338
      3 C          62.5391   85.5560   11.5862 C.ar    1  UNL1        0.0728
      4 C          61.7352   85.5198   10.3204 C.ar    1  UNL1        0.0961
      5 N          61.2019   86.7931    9.7338 N.ar    1  UNL1       -0.2907
      6 C          60.3840   87.0678    8.5068 C.ar    1  UNL1        0.0567
      7 C          59.8881   86.0429    7.5302 C.3     1  UNL1        0.0517
      8 C          60.1492   88.5472    8.4278 C.ar    1  UNL1        0.0730
      9 C          59.3771   89.2615    7.3583 C.3     1  UNL1        0.0534
     10 N          60.8219   89.1869    9.6060 N.ar    1  UNL1       -0.2299
     11 C          61.4725   88.1028   10.4132 C.ar    1  UNL1        0.1604
     12 N          63.0724   84.2825   12.1727 N.am    1  UNL1       -0.2572
     13 C          63.9040   83.3600   11.3317 C.3     1  UNL1        0.0983
     14 C          64.4373   82.0866   11.9181 C.3     1  UNL1        0.0224
     15 C          64.1389   81.7356   13.3457 C.3     1  UNL1        0.0113
     16 C          63.3073   82.6581   14.1867 C.3     1  UNL1        0.0857
     17 C          62.7740   83.9316   13.6002 C.2     1  UNL1        0.2294
     18 O          61.9423   84.8540   14.4413 O.2     1  UNL1       -0.2745
     19 N          62.5471   89.4487   12.3584 N.pl3   1  UNL1       -0.3267
     20 H          62.0854   89.6720   13.1988 H       1  UNL1        0.1472
     21 C          63.5210   90.4183   11.7572 C.3     1  UNL1        0.1137
     22 C          65.0351   92.7700   10.6722 C.3     1  UNL1        0.0307
     23 C          65.2306   92.3448   12.0973 C.ar    1  UNL1       -0.0245
     24 C          66.1832   93.0956   12.9800 C.ar    1  UNL1       -0.0045
     25 C          66.3787   92.6705   14.4051 C.ar    1  UNL1       -0.0007
     26 C          65.6217   91.4946   14.9477 C.ar    1  UNL1       -0.0045
     27 C          64.6691   90.7439   14.0651 C.ar    1  UNL1       -0.0245
     28 C          63.9121   89.5680   14.6076 C.3     1  UNL1        0.0307
     29 C          64.4736   91.1690   12.6399 C.ar    1  UNL1       -0.0105
@<TRIPOS>BOND
     1    22    23    1
     2    23    24   ar
     3    24    25   ar
     4    25    26   ar
     5    26    27   ar
     6    27    28    1
     7    27    29   ar
     8    29    21    1
     9    21    19    1
    10    19     1    1
    11     1     2   ar
    12     2     3   ar
    13     3    12    1
    14    12    13    1
    15    13    14    1
    16    14    15    1
    17    15    16    1
    18    16    17    1
    19    17    18    2
    20     3     4   ar
    21     4     5   ar
    22     5     6   ar
    23     6     7    1
    24     6     8   ar
    25     8     9    1
    26     8    10   ar
    27    10    11   ar
    28    29    23   ar
    29    11     1   ar
    30    17    12   am
    31    11     5   ar
    32    19    20    1
@<TRIPOS>MOLECULE
*****
 29 32 0 0 0
SMALL
GASTEIGER

@<TRIPOS>ATOM
      1 C          63.1582   87.8652   12.5728 C.ar    1  UNL1        0.0811
      2 C          62.3213   88.1670   11.3651 C.ar    1  UNL1        0.0338
      3 C          61.6373   87.0531   10.6294 C.ar    1  UNL1        0.0728
      4 C          61.7901   85.6375   11.1013 C.ar    1  UNL1        0.0961
      5 N          62.6270   85.3358   12.3090 N.ar    1  UNL1       -0.2907
      6 C          62.9591   84.0486   13.0039 C.ar    1  UNL1        0.0567
      7 C          62.4851   82.6829   12.6038 C.3     1  UNL1        0.0517
      8 C          63.8484   84.3670   14.1692 C.ar    1  UNL1        0.0730
      9 C          64.4198   83.3754   15.1389 C.3     1  UNL1        0.0534
     10 N          64.0659   85.8509   14.1944 N.ar    1  UNL1       -0.2299
     11 C          63.3110   86.4496   13.0447 C.ar    1  UNL1        0.1604
     12 N          60.8003   87.3549    9.4216 N.am    1  UNL1       -0.2572
     13 C          60.4125   86.2509    8.4831 C.3     1  UNL1        0.0983
     14 C          59.5756   86.5525    7.2754 C.3     1  UNL1        0.0224
     15 C          59.1265   87.9582    7.0062 C.3     1  UNL1        0.0113
     16 C          59.5143   89.0622    7.9447 C.3     1  UNL1        0.0857
     17 C          60.3512   88.7605    9.1525 C.2     1  UNL1        0.2294
     18 O          60.7391   89.8645   10.0910 O.2     1  UNL1       -0.2745
     19 N          63.8423   88.9791   13.3086 N.pl3   1  UNL1       -0.3267
     20 H          64.5578   88.7764   13.9538 H       1  UNL1        0.1472
     21 C          63.4361   90.4018   13.0615 C.3     1  UNL1        0.1137
     22 C          65.4897   91.4250   14.9944 C.3     1  UNL1        0.0307
     23 C          65.4825   91.9170   13.5774 C.ar    1  UNL1       -0.0245
     24 C          66.5022   92.9207   13.1268 C.ar    1  UNL1       -0.0045
     25 C          66.4951   93.4127   11.7098 C.ar    1  UNL1       -0.0007
     26 C          65.4683   92.9010   10.7434 C.ar    1  UNL1       -0.0045
     27 C          64.4487   91.8974   11.1939 C.ar    1  UNL1       -0.0245
     28 C          63.4219   91.3858   10.2275 C.3     1  UNL1        0.0307
     29 C          64.4558   91.4054   12.6110 C.ar    1  UNL1       -0.0105
@<TRIPOS>BOND
     1    22    23    1
     2    23    24   ar
     3    24    25   ar
     4    25    26   ar
     5    26    27   ar
     6    27    28    1
     7    27    29   ar
     8    29    21    1
     9    21    19    1
    10    19     1    1
    11     1     2   ar
    12     2     3   ar
    13     3    12    1
    14    12    13    1
    15    13    14    1
    16    14    15    1
    17    15    16    1
    18    16    17    1
    19    17    18    2
    20     3     4   ar
    21     4     5   ar
    22     5     6   ar
    23     6     7    1
    24     6     8   ar
    25     8     9    1
    26     8    10   ar
    27    10    11   ar
    28    29    23   ar
    29    11     1   ar
    30    17    12   am
    31    11     5   ar
    32    19    20    1
@<TRIPOS>MOLECULE
*****
 29 32 0 0 0
SMALL
GASTEIGER

@<TRIPOS>ATOM
      1 C          63.1665   87.8627   12.5714 C.ar    1  UNL1        0.0811
      2 C          62.3274   88.1625   11.3648 C.ar    1  UNL1        0.0338
      3 C          61.6441   87.0472   10.6306 C.ar    1  UNL1        0.0728
      4 C          61.7998   85.6321   11.1030 C.ar    1  UNL1        0.0961
      5 N          62.6389   85.3323   12.3097 N.ar    1  UNL1       -0.2907
      6 C          62.9740   84.0460   13.0048 C.ar    1  UNL1        0.0567
      7 C          62.5015   82.6793   12.6060 C.3     1  UNL1        0.0517
      8 C          63.8644   84.3664   14.1686 C.ar    1  UNL1        0.0730
      9 C          64.4388   83.3762   15.1380 C.3     1  UNL1        0.0534
     10 N          64.0797   85.8506   14.1928 N.ar    1  UNL1       -0.2299
     11 C          63.3222   86.4476   13.0438 C.ar    1  UNL1        0.1604
     12 N          60.8049   87.3470    9.4239 N.am    1  UNL1       -0.2572
     13 C          60.4095   86.2404    8.4916 C.3     1  UNL1        0.0983
     14 C          59.5704   86.5401    7.2850 C.3     1  UNL1        0.0224
     15 C          59.1267   87.9465    7.0105 C.3     1  UNL1        0.0113
     16 C          59.5221   89.0531    7.9427 C.3     1  UNL1        0.0857
     17 C          60.3612   88.7533    9.1495 C.2     1  UNL1        0.2294
     18 O          60.7567   89.8599   10.0817 O.2     1  UNL1       -0.2745
     19 N          63.8499   88.9780   13.3057 N.pl3   1  UNL1       -0.3267
     20 H          64.5652   88.7767   13.9514 H       1  UNL1        0.1472
     21 C          63.4434   90.4002   13.0560 C.3     1  UNL1        0.1137
     22 C          63.4210   91.3855   10.2225 C.3     1  UNL1        0.0307
     23 C          64.4514   91.8956   11.1858 C.ar    1  UNL1       -0.0245
     24 C          65.4707   92.8984   10.7324 C.ar    1  UNL1       -0.0045
     25 C          66.5011   93.4085   11.6957 C.ar    1  UNL1       -0.0007
     26 C          66.5123   92.9159   13.1124 C.ar    1  UNL1       -0.0045
     27 C          65.4931   91.9131   13.5659 C.ar    1  UNL1       -0.0245
     28 C          65.5043   91.4204   14.9826 C.3     1  UNL1        0.0307
     29 C          64.4626   91.4029   12.6025 C.ar    1  UNL1       -0.0105
@<TRIPOS>BOND
     1    22    23    1
     2    23    24   ar
     3    24    25   ar
     4    25    26   ar
     5    26    27   ar
     6    27    28    1
     7    27    29   ar
     8    29    21    1
     9    21    19    1
    10    19     1    1
    11     1     2   ar
    12     2     3   ar
    13     3    12    1
    14    12    13    1
    15    13    14    1
    16    14    15    1
    17    15    16    1
    18    16    17    1
    19    17    18    2
    20     3     4   ar
    21     4     5   ar
    22     5     6   ar
    23     6     7    1
    24     6     8   ar
    25     8     9    1
    26     8    10   ar
    27    10    11   ar
    28    29    23   ar
    29    11     1   ar
    30    17    12   am
    31    11     5   ar
    32    19    20    1
