@<TRIPOS>MOLECULE
*****
 42 45 0 0 0
SMALL
GASTEIGER

@<TRIPOS>ATOM
      1 N          64.0656   89.2975   13.8160 N.am    1  UNL1       -0.2927
      2 C          63.4912   89.4055   15.1974 C.2     1  UNL1        0.2508
      3 O          63.0710   90.7423   15.7326 O.2     1  UNL1       -0.2700
      4 H          64.3414   88.4201   13.4648 H       1  UNL1        0.1502
      5 C          63.3370   88.1766   16.0438 C.ar    1  UNL1        0.1068
      6 C          62.9293   88.3027   17.4818 C.ar    1  UNL1        0.0108
      7 C          62.7751   87.0739   18.3281 C.ar    1  UNL1        0.0210
      8 C          63.0287   85.7191   17.7364 C.ar    1  UNL1        0.1021
      9 N          63.4364   85.5930   16.2984 N.ar    1  UNL1       -0.2097
     10 C          63.5906   86.8218   15.4521 C.ar    1  UNL1        0.2340
     11 O          63.9984   86.6957   14.0141 O.3     1  UNL1       -0.4351
     12 C          63.7840   85.4029   13.2843 C.ar    1  UNL1        0.1576
     13 C          62.6472   85.2683   12.3151 C.ar    1  UNL1        0.0384
     14 C          62.4329   83.9754   11.5853 C.ar    1  UNL1        0.0070
     15 C          63.3554   82.8172   11.8247 C.ar    1  UNL1        0.0725
     16 C          64.4923   82.9518   12.7940 C.ar    1  UNL1        0.0183
     17 C          64.7066   84.2446   13.5238 C.ar    1  UNL1        0.0921
     18 CL         65.8435   84.3792   14.4930 Cl      1  UNL1       -0.0791
     19 C          63.1411   81.5244   11.0950 C.3     1  UNL1        0.4186
     20 F          62.9268   80.2314   10.3652 F       1  UNL1       -0.1659
     21 F          63.9708   82.0315    9.9529 F       1  UNL1       -0.1659
     22 F          62.3115   81.0172   12.2371 F       1  UNL1       -0.1659
     23 C          64.2198   90.5264   12.9697 C.3     1  UNL1        0.1789
     24 C          66.5098   96.0760    9.6219 C.3     1  UNL1        0.0897
     25 N          66.1664   94.9643   10.5687 N.3     1  UNL1       -0.2686
     26 C          66.7397   94.9558   11.9547 C.3     1  UNL1        0.0939
     27 C          66.3964   93.8441   12.9015 C.3     1  UNL1        0.1108
     28 N          65.4797   92.7411   12.4622 N.am    1  UNL1       -0.2753
     29 C          65.1364   91.6294   13.4090 C.2     1  UNL1        0.2462
     30 O          65.7097   91.6208   14.7950 O.2     1  UNL1       -0.2730
     31 C          64.9065   92.7496   11.0761 C.3     1  UNL1        0.1108
     32 C          65.2498   93.8613   10.1294 C.3     1  UNL1        0.0939
     33 C          63.4573   90.6521   11.6840 C.3     1  UNL1        0.1715
     34 O          62.0843   90.0597   11.5654 O.3     1  UNL1       -0.3467
     35 C          61.3415   90.1428   10.2648 C.3     1  UNL1        0.1687
     36 C          61.0435   88.8933    9.4902 C.ar    1  UNL1        0.0074
     37 C          59.8758   88.8547    8.5494 C.ar    1  UNL1        0.0005
     38 C          59.5778   87.6052    7.7748 C.ar    1  UNL1        0.0294
     39 C          60.4474   86.3944    7.9410 C.ar    1  UNL1        0.1401
     40 F          60.1494   85.1449    7.1664 F       1  UNL1       -0.2042
     41 C          61.6150   86.4330    8.8818 C.ar    1  UNL1        0.0294
     42 C          61.9131   87.6825    9.6564 C.ar    1  UNL1        0.0005
@<TRIPOS>BOND
     1    24    25    1
     2    25    26    1
     3    26    27    1
     4    27    28    1
     5    28    29   am
     6    29    30    2
     7    29    23    1
     8    23    33    1
     9    33    34    1
    10    34    35    1
    11    35    36    1
    12    36    37   ar
    13    37    38   ar
    14    38    39   ar
    15    39    40    1
    16    39    41   ar
    17    41    42   ar
    18    23     1    1
    19     1     2   am
    20     2     3    2
    21     2     5    1
    22     5     6   ar
    23     6     7   ar
    24     7     8   ar
    25     8     9   ar
    26     9    10   ar
    27    10    11    1
    28    11    12    1
    29    12    13   ar
    30    13    14   ar
    31    14    15   ar
    32    15    19    1
    33    19    20    1
    34    19    21    1
    35    19    22    1
    36    15    16   ar
    37    16    17   ar
    38    17    18    1
    39    28    31    1
    40    31    32    1
    41    32    25    1
    42    42    36   ar
    43    10     5   ar
    44    17    12   ar
    45     1     4    1
@<TRIPOS>MOLECULE
*****
 42 45 0 0 0
SMALL
GASTEIGER

@<TRIPOS>ATOM
      1 N          62.5107   89.0973   11.1517 N.am    1  UNL1       -0.2927
      2 C          61.2059   89.1967   10.4187 C.2     1  UNL1        0.2508
      3 O          60.2996   90.3682   10.6559 O.2     1  UNL1       -0.2700
      4 H          63.1055   88.3284   10.9960 H       1  UNL1        0.1502
      5 C          60.8072   88.1245    9.4483 C.ar    1  UNL1        0.1068
      6 C          59.7077   88.3785    8.4601 C.ar    1  UNL1        0.0108
      7 C          59.3090   87.3064    7.4897 C.ar    1  UNL1        0.0210
      8 C          60.0099   85.9804    7.5075 C.ar    1  UNL1        0.1021
      9 N          61.1095   85.7264    8.4957 N.ar    1  UNL1       -0.2097
     10 C          61.5081   86.7985    9.4660 C.ar    1  UNL1        0.2340
     11 O          62.6077   86.5446   10.4542 O.3     1  UNL1       -0.4351
     12 C          62.6849   85.2278   11.1684 C.ar    1  UNL1        0.1576
     13 C          62.1776   85.1066   12.5749 C.ar    1  UNL1        0.0384
     14 C          62.2548   83.7898   13.2891 C.ar    1  UNL1        0.0070
     15 C          62.8392   82.5942   12.5969 C.ar    1  UNL1        0.0725
     16 C          63.3464   82.7155   11.1905 C.ar    1  UNL1        0.0183
     17 C          63.2693   84.0322   10.4763 C.ar    1  UNL1        0.0921
     18 CL         63.7765   84.1534    9.0699 Cl      1  UNL1       -0.0791
     19 C          62.9163   81.2775   13.3112 C.3     1  UNL1        0.4186
     20 F          62.9934   79.9607   14.0255 F       1  UNL1       -0.1659
     21 F          64.4112   81.2990   13.1894 F       1  UNL1       -0.1659
     22 F          61.4215   81.2560   13.4330 F       1  UNL1       -0.1659
     23 C          62.9094   90.1695   12.1221 C.3     1  UNL1        0.1789
     24 C          68.6393   92.7350   14.9216 C.3     1  UNL1        0.0897
     25 N          67.4303   92.3734   14.1106 N.3     1  UNL1       -0.2686
     26 C          67.1155   93.1312   12.8549 C.3     1  UNL1        0.0939
     27 C          65.9065   92.7696   12.0439 C.3     1  UNL1        0.1108
     28 N          65.0124   91.6503   12.4885 N.am    1  UNL1       -0.2753
     29 C          63.8035   91.2888   11.6775 C.2     1  UNL1        0.2462
     30 O          63.4887   92.0465   10.4219 O.2     1  UNL1       -0.2730
     31 C          65.3273   90.8926   13.7442 C.3     1  UNL1        0.1108
     32 C          66.5362   91.2542   14.5552 C.3     1  UNL1        0.0939
     33 C          62.4139   90.1223   13.5372 C.3     1  UNL1        0.1715
     34 O          63.2626   90.6671   14.6476 O.3     1  UNL1       -0.3467
     35 C          63.3594   89.9281   15.9493 C.3     1  UNL1        0.1687
     36 C          63.5478   88.4400   15.9548 C.ar    1  UNL1        0.0074
     37 C          64.3692   87.7841   14.8846 C.ar    1  UNL1        0.0005
     38 C          64.5576   86.2960   14.8901 C.ar    1  UNL1        0.0294
     39 C          63.9247   85.4638   15.9656 C.ar    1  UNL1        0.1401
     40 F          64.1131   83.9757   15.9710 F       1  UNL1       -0.2042
     41 C          63.1033   86.1196   17.0357 C.ar    1  UNL1        0.0294
     42 C          62.9149   87.6078   17.0303 C.ar    1  UNL1        0.0005
@<TRIPOS>BOND
     1    24    25    1
     2    25    26    1
     3    26    27    1
     4    27    28    1
     5    28    29   am
     6    29    30    2
     7    29    23    1
     8    23    33    1
     9    33    34    1
    10    34    35    1
    11    35    36    1
    12    36    37   ar
    13    37    38   ar
    14    38    39   ar
    15    39    40    1
    16    39    41   ar
    17    41    42   ar
    18    23     1    1
    19     1     2   am
    20     2     3    2
    21     2     5    1
    22     5     6   ar
    23     6     7   ar
    24     7     8   ar
    25     8     9   ar
    26     9    10   ar
    27    10    11    1
    28    11    12    1
    29    12    13   ar
    30    13    14   ar
    31    14    15   ar
    32    15    19    1
    33    19    20    1
    34    19    21    1
    35    19    22    1
    36    15    16   ar
    37    16    17   ar
    38    17    18    1
    39    28    31    1
    40    31    32    1
    41    32    25    1
    42    42    36   ar
    43    10     5   ar
    44    17    12   ar
    45     1     4    1
@<TRIPOS>MOLECULE
*****
 42 45 0 0 0
SMALL
GASTEIGER

@<TRIPOS>ATOM
      1 N          63.5686   89.6206   11.8007 N.am    1  UNL1       -0.2927
      2 C          62.0960   89.3368   11.8268 C.2     1  UNL1        0.2508
      3 O          61.2425   89.9023   12.9230 O.2     1  UNL1       -0.2700
      4 H          64.1288   89.2494   11.0812 H       1  UNL1        0.1502
      5 C          61.4767   88.4874   10.7566 C.ar    1  UNL1        0.1068
      6 C          60.4797   89.0846    9.8083 C.ar    1  UNL1        0.0108
      7 C          59.8605   88.2353    8.7382 C.ar    1  UNL1        0.0210
      8 C          60.2383   86.7888    8.6164 C.ar    1  UNL1        0.1021
      9 N          61.2353   86.1916    9.5647 N.ar    1  UNL1       -0.2097
     10 C          61.8545   87.0409   10.6348 C.ar    1  UNL1        0.2340
     11 O          62.8515   86.4437   11.5832 O.3     1  UNL1       -0.4351
     12 C          62.7492   84.9970   11.9660 C.ar    1  UNL1        0.1576
     13 C          62.2361   84.6147   13.3226 C.ar    1  UNL1        0.0384
     14 C          62.1338   83.1679   13.7054 C.ar    1  UNL1        0.0070
     15 C          62.5446   82.1036   12.7316 C.ar    1  UNL1        0.0725
     16 C          63.0578   82.4860   11.3750 C.ar    1  UNL1        0.0183
     17 C          63.1601   83.9326   10.9921 C.ar    1  UNL1        0.0921
     18 CL         63.6733   84.3150    9.6355 Cl      1  UNL1       -0.0791
     19 C          62.4423   80.6569   13.1144 C.3     1  UNL1        0.4186
     20 F          62.3400   79.2102   13.4973 F       1  UNL1       -0.1659
     21 F          62.8282   80.2607   11.7201 F       1  UNL1       -0.1659
     22 F          62.0565   81.0531   14.5087 F       1  UNL1       -0.1659
     23 C          64.1879   90.4700   12.8709 C.3     1  UNL1        0.1789
     24 C          63.6032   85.0327   17.0354 C.3     1  UNL1        0.0897
     25 N          63.6280   86.3657   16.3481 N.3     1  UNL1       -0.2686
     26 C          63.1678   87.5936   17.0763 C.3     1  UNL1        0.0939
     27 C          63.1926   88.9267   16.3890 C.3     1  UNL1        0.1108
     28 N          63.6778   89.0318   14.9736 N.am    1  UNL1       -0.2753
     29 C          63.7027   90.3649   14.2863 C.2     1  UNL1        0.2462
     30 O          63.2424   91.5928   15.0145 O.2     1  UNL1       -0.2730
     31 C          64.1381   87.8039   14.2454 C.3     1  UNL1        0.1108
     32 C          64.1132   86.4708   14.9327 C.3     1  UNL1        0.0939
     33 C          65.2923   91.4245   12.5255 C.3     1  UNL1        0.1715
     34 O          65.0796   92.9021   12.6717 O.3     1  UNL1       -0.3467
     35 C          66.2488   93.8389   12.5991 C.3     1  UNL1        0.1687
     36 C          66.5300   94.5908   11.3320 C.ar    1  UNL1        0.0074
     37 C          67.0939   93.8715   10.1426 C.ar    1  UNL1        0.0005
     38 C          67.3751   94.6233    8.8754 C.ar    1  UNL1        0.0294
     39 C          67.0923   96.0944    8.7976 C.ar    1  UNL1        0.1401
     40 F          67.3735   96.8462    7.5305 F       1  UNL1       -0.2042
     41 C          66.5284   96.8136    9.9870 C.ar    1  UNL1        0.0294
     42 C          66.2472   96.0618   11.2542 C.ar    1  UNL1        0.0005
@<TRIPOS>BOND
     1    24    25    1
     2    25    26    1
     3    26    27    1
     4    27    28    1
     5    28    29   am
     6    29    30    2
     7    29    23    1
     8    23    33    1
     9    33    34    1
    10    34    35    1
    11    35    36    1
    12    36    37   ar
    13    37    38   ar
    14    38    39   ar
    15    39    40    1
    16    39    41   ar
    17    41    42   ar
    18    23     1    1
    19     1     2   am
    20     2     3    2
    21     2     5    1
    22     5     6   ar
    23     6     7   ar
    24     7     8   ar
    25     8     9   ar
    26     9    10   ar
    27    10    11    1
    28    11    12    1
    29    12    13   ar
    30    13    14   ar
    31    14    15   ar
    32    15    19    1
    33    19    20    1
    34    19    21    1
    35    19    22    1
    36    15    16   ar
    37    16    17   ar
    38    17    18    1
    39    28    31    1
    40    31    32    1
    41    32    25    1
    42    42    36   ar
    43    10     5   ar
    44    17    12   ar
    45     1     4    1
@<TRIPOS>MOLECULE
*****
 42 45 0 0 0
SMALL
GASTEIGER

@<TRIPOS>ATOM
      1 N          63.1373   89.0057   13.0088 N.am    1  UNL1       -0.2927
      2 C          63.2312   89.4162   14.4485 C.2     1  UNL1        0.2508
      3 O          63.2920   90.8704   14.8113 O.2     1  UNL1       -0.2700
      4 H          63.0974   88.0512   12.7707 H       1  UNL1        0.1502
      5 C          63.2643   88.3725   15.5254 C.ar    1  UNL1        0.1068
      6 C          62.9133   88.7397   16.9367 C.ar    1  UNL1        0.0108
      7 C          62.9464   87.6961   18.0136 C.ar    1  UNL1        0.0210
      8 C          63.3305   86.2853   17.6792 C.ar    1  UNL1        0.1021
      9 N          63.6815   85.9180   16.2678 N.ar    1  UNL1       -0.2097
     10 C          63.6484   86.9616   15.1909 C.ar    1  UNL1        0.2340
     11 O          63.9994   86.5944   13.7796 O.3     1  UNL1       -0.4351
     12 C          63.7450   85.2026   13.2813 C.ar    1  UNL1        0.1576
     13 C          62.5517   84.9218   12.4169 C.ar    1  UNL1        0.0384
     14 C          62.2974   83.5300   11.9187 C.ar    1  UNL1        0.0070
     15 C          63.2363   82.4190   12.2849 C.ar    1  UNL1        0.0725
     16 C          64.4296   82.6998   13.1493 C.ar    1  UNL1        0.0183
     17 C          64.6840   84.0916   13.6475 C.ar    1  UNL1        0.0921
     18 CL         65.8773   84.3724   14.5119 Cl      1  UNL1       -0.0791
     19 C          62.9819   81.0273   11.7867 C.3     1  UNL1        0.4186
     20 F          62.7276   79.6355   11.2884 F       1  UNL1       -0.1659
     21 F          62.7688   80.5616   13.1965 F       1  UNL1       -0.1659
     22 F          63.1951   81.4930   10.3769 F       1  UNL1       -0.1659
     23 C          63.1042   90.0494   11.9319 C.3     1  UNL1        0.1789
     24 C          60.2460   85.7158    7.4262 C.3     1  UNL1        0.0897
     25 N          60.6567   86.8355    8.3360 N.3     1  UNL1       -0.2686
     26 C          59.8516   88.1004    8.3792 C.3     1  UNL1        0.0939
     27 C          60.2622   89.2201    9.2890 C.3     1  UNL1        0.1108
     28 N          61.4779   89.0749   10.1555 N.am    1  UNL1       -0.2753
     29 C          61.8885   90.1946   11.0653 C.2     1  UNL1        0.2462
     30 O          61.0834   91.4594   11.1085 O.2     1  UNL1       -0.2730
     31 C          62.2829   87.8100   10.1123 C.3     1  UNL1        0.1108
     32 C          61.8723   86.6903    9.2025 C.3     1  UNL1        0.0939
     33 C          64.2868   90.9478   11.7216 C.3     1  UNL1        0.1715
     34 O          64.4672   92.1637   12.5814 O.3     1  UNL1       -0.3467
     35 C          65.8140   92.8159   12.6850 C.3     1  UNL1        0.1687
     36 C          66.3482   93.6201   11.5371 C.ar    1  UNL1        0.0074
     37 C          66.1227   95.1024   11.4906 C.ar    1  UNL1        0.0005
     38 C          66.6568   95.9066   10.3427 C.ar    1  UNL1        0.0294
     39 C          67.4165   95.2287    9.2411 C.ar    1  UNL1        0.1401
     40 F          67.9506   96.0330    8.0932 F       1  UNL1       -0.2042
     41 C          67.6419   93.7465    9.2875 C.ar    1  UNL1        0.0294
     42 C          67.1078   92.9422   10.4355 C.ar    1  UNL1        0.0005
@<TRIPOS>BOND
     1    24    25    1
     2    25    26    1
     3    26    27    1
     4    27    28    1
     5    28    29   am
     6    29    30    2
     7    29    23    1
     8    23    33    1
     9    33    34    1
    10    34    35    1
    11    35    36    1
    12    36    37   ar
    13    37    38   ar
    14    38    39   ar
    15    39    40    1
    16    39    41   ar
    17    41    42   ar
    18    23     1    1
    19     1     2   am
    20     2     3    2
    21     2     5    1
    22     5     6   ar
    23     6     7   ar
    24     7     8   ar
    25     8     9   ar
    26     9    10   ar
    27    10    11    1
    28    11    12    1
    29    12    13   ar
    30    13    14   ar
    31    14    15   ar
    32    15    19    1
    33    19    20    1
    34    19    21    1
    35    19    22    1
    36    15    16   ar
    37    16    17   ar
    38    17    18    1
    39    28    31    1
    40    31    32    1
    41    32    25    1
    42    42    36   ar
    43    10     5   ar
    44    17    12   ar
    45     1     4    1
@<TRIPOS>MOLECULE
*****
 42 45 0 0 0
SMALL
GASTEIGER

@<TRIPOS>ATOM
      1 N          63.2244   89.1745   12.1998 N.am    1  UNL1       -0.2927
      2 C          61.7838   89.0477   11.8019 C.2     1  UNL1        0.2508
      3 O          60.7188   89.7207   12.6162 O.2     1  UNL1       -0.2700
      4 H          63.9234   88.7328   11.6653 H       1  UNL1        0.1502
      5 C          61.4080   88.2480   10.5898 C.ar    1  UNL1        0.1068
      6 C          60.4584   88.8195    9.5790 C.ar    1  UNL1        0.0108
      7 C          60.0826   88.0198    8.3669 C.ar    1  UNL1        0.0210
      8 C          60.6564   86.6486    8.1655 C.ar    1  UNL1        0.1021
      9 N          61.6060   86.0771    9.1763 N.ar    1  UNL1       -0.2097
     10 C          61.9818   86.8768   10.3884 C.ar    1  UNL1        0.2340
     11 O          62.9314   86.3053   11.3992 O.3     1  UNL1       -0.4351
     12 C          62.7950   84.8756   11.8320 C.ar    1  UNL1        0.1576
     13 C          62.1542   84.5483   13.1482 C.ar    1  UNL1        0.0384
     14 C          62.0179   83.1185   13.5809 C.ar    1  UNL1        0.0070
     15 C          62.5222   82.0161   12.6976 C.ar    1  UNL1        0.0725
     16 C          63.1629   82.3435   11.3814 C.ar    1  UNL1        0.0183
     17 C          63.2993   83.7732   10.9486 C.ar    1  UNL1        0.0921
     18 CL         63.9400   84.1005    9.6324 Cl      1  UNL1       -0.0791
     19 C          62.3858   80.5865   13.1303 C.3     1  UNL1        0.4186
     20 F          62.2494   79.1567   13.5632 F       1  UNL1       -0.1659
     21 F          62.7388   80.1333   11.7447 F       1  UNL1       -0.1659
     22 F          62.0328   81.0396   14.5160 F       1  UNL1       -0.1659
     23 C          63.6002   89.9743   13.4119 C.3     1  UNL1        0.1789
     24 C          66.4653   94.6421    9.2582 C.3     1  UNL1        0.0897
     25 N          66.0824   93.6461   10.3125 N.3     1  UNL1       -0.2686
     26 C          67.0328   93.3343   11.4302 C.3     1  UNL1        0.0939
     27 C          66.6499   92.3383   12.4845 C.3     1  UNL1        0.1108
     28 N          65.3165   91.6543   12.4211 N.am    1  UNL1       -0.2753
     29 C          64.9336   90.6583   13.4754 C.2     1  UNL1        0.2462
     30 O          65.8841   90.3465   14.5930 O.2     1  UNL1       -0.2730
     31 C          64.3660   91.9661   11.3034 C.3     1  UNL1        0.1108
     32 C          64.7490   92.9620   10.2491 C.3     1  UNL1        0.0939
     33 C          62.6425   90.0899   14.5606 C.3     1  UNL1        0.1715
     34 O          63.1626   90.1721   15.9653 O.3     1  UNL1       -0.3467
     35 C          62.9572   89.0247   16.9094 C.3     1  UNL1        0.1687
     36 C          63.3586   87.6378   16.5028 C.ar    1  UNL1        0.0074
     37 C          62.7829   86.4507   17.2166 C.ar    1  UNL1        0.0005
     38 C          63.1844   85.0638   16.8100 C.ar    1  UNL1        0.0294
     39 C          64.1615   84.8639   15.6897 C.ar    1  UNL1        0.1401
     40 F          64.5630   83.4771   15.2831 F       1  UNL1       -0.2042
     41 C          64.7372   86.0510   14.9759 C.ar    1  UNL1        0.0294
     42 C          64.3358   87.4379   15.3824 C.ar    1  UNL1        0.0005
@<TRIPOS>BOND
     1    24    25    1
     2    25    26    1
     3    26    27    1
     4    27    28    1
     5    28    29   am
     6    29    30    2
     7    29    23    1
     8    23    33    1
     9    33    34    1
    10    34    35    1
    11    35    36    1
    12    36    37   ar
    13    37    38   ar
    14    38    39   ar
    15    39    40    1
    16    39    41   ar
    17    41    42   ar
    18    23     1    1
    19     1     2   am
    20     2     3    2
    21     2     5    1
    22     5     6   ar
    23     6     7   ar
    24     7     8   ar
    25     8     9   ar
    26     9    10   ar
    27    10    11    1
    28    11    12    1
    29    12    13   ar
    30    13    14   ar
    31    14    15   ar
    32    15    19    1
    33    19    20    1
    34    19    21    1
    35    19    22    1
    36    15    16   ar
    37    16    17   ar
    38    17    18    1
    39    28    31    1
    40    31    32    1
    41    32    25    1
    42    42    36   ar
    43    10     5   ar
    44    17    12   ar
    45     1     4    1
@<TRIPOS>MOLECULE
*****
 42 45 0 0 0
SMALL
GASTEIGER

@<TRIPOS>ATOM
      1 N          63.0326   89.5036   10.7341 N.am    1  UNL1       -0.2927
      2 C          61.5983   89.6713   10.3283 C.2     1  UNL1        0.2508
      3 O          60.8434   90.9027   10.7328 O.2     1  UNL1       -0.2700
      4 H          63.5280   88.6954   10.4686 H       1  UNL1        0.1502
      5 C          60.9189   88.6074    9.5178 C.ar    1  UNL1        0.1068
      6 C          59.8236   88.9774    8.5622 C.ar    1  UNL1        0.0108
      7 C          59.1441   87.9137    7.7518 C.ar    1  UNL1        0.0210
      8 C          59.5601   86.4799    7.8971 C.ar    1  UNL1        0.1021
      9 N          60.6554   86.1098    8.8527 N.ar    1  UNL1       -0.2097
     10 C          61.3348   87.1736    9.6631 C.ar    1  UNL1        0.2340
     11 O          62.4302   86.8035   10.6188 O.3     1  UNL1       -0.4351
     12 C          62.5778   85.3828   11.0767 C.ar    1  UNL1        0.1576
     13 C          62.1473   84.9919   12.4594 C.ar    1  UNL1        0.0384
     14 C          62.2949   83.5711   12.9172 C.ar    1  UNL1        0.0070
     15 C          62.8730   82.5413   11.9924 C.ar    1  UNL1        0.0725
     16 C          63.3035   82.9322   10.6097 C.ar    1  UNL1        0.0183
     17 C          63.1559   84.3530   10.1518 C.ar    1  UNL1        0.0921
     18 CL         63.5864   84.7439    8.7692 Cl      1  UNL1       -0.0791
     19 C          63.0206   81.1206   12.4503 C.3     1  UNL1        0.4186
     20 F          63.1682   79.6997   12.9082 F       1  UNL1       -0.1659
     21 F          63.2381   81.5962   13.8561 F       1  UNL1       -0.1659
     22 F          62.8031   80.6449   11.0445 F       1  UNL1       -0.1659
     23 C          63.7120   90.5675   11.5445 C.3     1  UNL1        0.1789
     24 C          63.9057   85.7172   16.4115 C.3     1  UNL1        0.0897
     25 N          63.7979   86.9505   15.5644 N.3     1  UNL1       -0.2686
     26 C          63.4527   88.2664   16.1961 C.3     1  UNL1        0.0939
     27 C          63.3449   89.4996   15.3491 C.3     1  UNL1        0.1108
     28 N          63.5823   89.4169   13.8703 N.am    1  UNL1       -0.2753
     29 C          63.4745   90.6502   13.0232 C.2     1  UNL1        0.2462
     30 O          63.1292   91.9661   13.6549 O.2     1  UNL1       -0.2730
     31 C          63.9276   88.1010   13.2386 C.3     1  UNL1        0.1108
     32 C          64.0354   86.8678   14.0857 C.3     1  UNL1        0.0939
     33 C          64.6289   91.5486   10.8761 C.3     1  UNL1        0.1715
     34 O          64.7777   92.9343   11.4310 O.3     1  UNL1       -0.3467
     35 C          66.1418   93.4754   11.7414 C.3     1  UNL1        0.1687
     36 C          66.8258   93.0961   13.0213 C.ar    1  UNL1        0.0074
     37 C          66.5436   93.8639   14.2786 C.ar    1  UNL1        0.0005
     38 C          67.2275   93.4846   15.5586 C.ar    1  UNL1        0.0294
     39 C          68.1938   92.3375   15.5812 C.ar    1  UNL1        0.1401
     40 F          68.8778   91.9582   16.8611 F       1  UNL1       -0.2042
     41 C          68.4760   91.5697   14.3240 C.ar    1  UNL1        0.0294
     42 C          67.7920   91.9489   13.0439 C.ar    1  UNL1        0.0005
@<TRIPOS>BOND
     1    24    25    1
     2    25    26    1
     3    26    27    1
     4    27    28    1
     5    28    29   am
     6    29    30    2
     7    29    23    1
     8    23    33    1
     9    33    34    1
    10    34    35    1
    11    35    36    1
    12    36    37   ar
    13    37    38   ar
    14    38    39   ar
    15    39    40    1
    16    39    41   ar
    17    41    42   ar
    18    23     1    1
    19     1     2   am
    20     2     3    2
    21     2     5    1
    22     5     6   ar
    23     6     7   ar
    24     7     8   ar
    25     8     9   ar
    26     9    10   ar
    27    10    11    1
    28    11    12    1
    29    12    13   ar
    30    13    14   ar
    31    14    15   ar
    32    15    19    1
    33    19    20    1
    34    19    21    1
    35    19    22    1
    36    15    16   ar
    37    16    17   ar
    38    17    18    1
    39    28    31    1
    40    31    32    1
    41    32    25    1
    42    42    36   ar
    43    10     5   ar
    44    17    12   ar
    45     1     4    1
@<TRIPOS>MOLECULE
*****
 42 45 0 0 0
SMALL
GASTEIGER

@<TRIPOS>ATOM
      1 N          63.0376   90.1117   13.7427 N.am    1  UNL1       -0.2927
      2 C          63.3814   88.6520   13.7758 C.2     1  UNL1        0.2508
      3 O          63.7406   87.9371   12.5070 O.2     1  UNL1       -0.2700
      4 H          62.8018   90.5809   14.5755 H       1  UNL1        0.1502
      5 C          63.3661   87.9072   15.0778 C.ar    1  UNL1        0.1068
      6 C          62.8269   88.5664   16.3126 C.ar    1  UNL1        0.0108
      7 C          62.8116   87.8216   17.6145 C.ar    1  UNL1        0.0210
      8 C          63.3353   86.4177   17.6816 C.ar    1  UNL1        0.1021
      9 N          63.8744   85.7585   16.4468 N.ar    1  UNL1       -0.2097
     10 C          63.8898   86.5032   15.1449 C.ar    1  UNL1        0.2340
     11 O          64.4289   85.8440   13.9100 O.3     1  UNL1       -0.4351
     12 C          63.9966   84.4529   13.5529 C.ar    1  UNL1        0.1576
     13 C          64.7048   83.2716   14.1470 C.ar    1  UNL1        0.0384
     14 C          64.2724   81.8803   13.7898 C.ar    1  UNL1        0.0070
     15 C          63.1318   81.6704   12.8385 C.ar    1  UNL1        0.0725
     16 C          62.4236   82.8517   12.2443 C.ar    1  UNL1        0.0183
     17 C          62.8560   84.2429   12.6015 C.ar    1  UNL1        0.0921
     18 CL         62.1478   85.4242   12.0073 Cl      1  UNL1       -0.0791
     19 C          62.6995   80.2792   12.4814 C.3     1  UNL1        0.4186
     20 F          62.2671   78.8879   12.1243 F       1  UNL1       -0.1659
     21 F          62.9615   80.5695   11.0333 F       1  UNL1       -0.1659
     22 F          62.4375   79.9889   13.9295 F       1  UNL1       -0.1659
     23 C          63.0529   90.8565   12.4407 C.3     1  UNL1        0.1789
     24 C          68.2076   93.3937   16.2146 C.3     1  UNL1        0.0897
     25 N          67.2217   92.9572   15.1718 N.3     1  UNL1       -0.2686
     26 C          67.4466   93.3118   13.7318 C.3     1  UNL1        0.0939
     27 C          66.4606   92.8753   12.6891 C.3     1  UNL1        0.1108
     28 N          65.2498   92.0842   13.0863 N.am    1  UNL1       -0.2753
     29 C          64.2638   91.6477   12.0435 C.2     1  UNL1        0.2462
     30 O          64.4887   92.0023   10.6035 O.2     1  UNL1       -0.2730
     31 C          65.0249   91.7295   14.5263 C.3     1  UNL1        0.1108
     32 C          66.0108   92.1660   15.5690 C.3     1  UNL1        0.0939
     33 C          61.8574   90.8102   11.5360 C.3     1  UNL1        0.1715
     34 O          61.0237   89.5655   11.4580 O.3     1  UNL1       -0.3467
     35 C          60.1972   89.2919   10.2365 C.3     1  UNL1        0.1687
     36 C          60.5055   88.1050    9.3728 C.ar    1  UNL1        0.0074
     37 C          59.4670   87.5737    8.4297 C.ar    1  UNL1        0.0005
     38 C          59.7753   86.3868    7.5659 C.ar    1  UNL1        0.0294
     39 C          61.1221   85.7311    7.6451 C.ar    1  UNL1        0.1401
     40 F          61.4304   84.5442    6.7814 F       1  UNL1       -0.2042
     41 C          62.1606   86.2623    8.5882 C.ar    1  UNL1        0.0294
     42 C          61.8523   87.4493    9.4520 C.ar    1  UNL1        0.0005
@<TRIPOS>BOND
     1    24    25    1
     2    25    26    1
     3    26    27    1
     4    27    28    1
     5    28    29   am
     6    29    30    2
     7    29    23    1
     8    23    33    1
     9    33    34    1
    10    34    35    1
    11    35    36    1
    12    36    37   ar
    13    37    38   ar
    14    38    39   ar
    15    39    40    1
    16    39    41   ar
    17    41    42   ar
    18    23     1    1
    19     1     2   am
    20     2     3    2
    21     2     5    1
    22     5     6   ar
    23     6     7   ar
    24     7     8   ar
    25     8     9   ar
    26     9    10   ar
    27    10    11    1
    28    11    12    1
    29    12    13   ar
    30    13    14   ar
    31    14    15   ar
    32    15    19    1
    33    19    20    1
    34    19    21    1
    35    19    22    1
    36    15    16   ar
    37    16    17   ar
    38    17    18    1
    39    28    31    1
    40    31    32    1
    41    32    25    1
    42    42    36   ar
    43    10     5   ar
    44    17    12   ar
    45     1     4    1
@<TRIPOS>MOLECULE
*****
 42 45 0 0 0
SMALL
GASTEIGER

@<TRIPOS>ATOM
      1 N          63.4376   89.5425   12.6019 N.am    1  UNL1       -0.2927
      2 C          63.9248   89.4891   14.0196 C.2     1  UNL1        0.2508
      3 O          63.7975   88.2202   14.8092 O.2     1  UNL1       -0.2700
      4 H          63.5212   90.3753   12.0837 H       1  UNL1        0.1502
      5 C          64.5394   90.7048   14.6477 C.ar    1  UNL1        0.1068
      6 C          64.2977   91.0032   16.0977 C.ar    1  UNL1        0.0108
      7 C          64.9123   92.2189   16.7258 C.ar    1  UNL1        0.0210
      8 C          65.7685   93.1361   15.9039 C.ar    1  UNL1        0.1021
      9 N          66.0102   92.8377   14.4539 N.ar    1  UNL1       -0.2097
     10 C          65.3956   91.6220   13.8258 C.ar    1  UNL1        0.2340
     11 O          65.6373   91.3236   12.3758 O.3     1  UNL1       -0.4351
     12 C          66.0705   92.4187   11.4468 C.ar    1  UNL1        0.1576
     13 C          65.1085   93.5057   11.0685 C.ar    1  UNL1        0.0384
     14 C          65.5418   94.6008   10.1395 C.ar    1  UNL1        0.0070
     15 C          66.9369   94.6089    9.5887 C.ar    1  UNL1        0.0725
     16 C          67.8989   93.5219    9.9669 C.ar    1  UNL1        0.0183
     17 C          67.4657   92.4268   10.8959 C.ar    1  UNL1        0.0921
     18 CL         68.4277   91.3398   11.2741 Cl      1  UNL1       -0.0791
     19 C          67.3701   95.7040    8.6596 C.3     1  UNL1        0.4186
     20 F          67.8033   96.7991    7.7305 F       1  UNL1       -0.1659
     21 F          67.2818   96.6928    9.7841 F       1  UNL1       -0.1659
     22 F          67.4584   94.7151    7.5352 F       1  UNL1       -0.1659
     23 C          62.8230   88.3268   11.9738 C.3     1  UNL1        0.1789
     24 C          61.0664   84.7795    6.3541 C.3     1  UNL1        0.0897
     25 N          61.2130   85.7026    7.5273 N.3     1  UNL1       -0.2686
     26 C          60.1892   86.7708    7.7737 C.3     1  UNL1        0.0939
     27 C          60.3357   87.6939    8.9469 C.3     1  UNL1        0.1108
     28 N          61.5061   87.5488    9.8738 N.am    1  UNL1       -0.2753
     29 C          61.6527   88.4719   11.0470 C.2     1  UNL1        0.2462
     30 O          60.6289   89.5401   11.2933 O.2     1  UNL1       -0.2730
     31 C          62.5299   86.4806    9.6274 C.3     1  UNL1        0.1108
     32 C          62.3833   85.5575    8.4542 C.3     1  UNL1        0.0939
     33 C          63.3789   86.9660   12.2727 C.3     1  UNL1        0.1715
     34 O          62.4752   85.8816   12.7805 O.3     1  UNL1       -0.3467
     35 C          63.0341   84.7718   13.6207 C.3     1  UNL1        0.1687
     36 C          62.9267   83.3505   13.1536 C.ar    1  UNL1        0.0074
     37 C          62.5289   82.2722   14.1177 C.ar    1  UNL1        0.0005
     38 C          62.4215   80.8509   13.6506 C.ar    1  UNL1        0.0294
     39 C          62.7119   80.5077   12.2196 C.ar    1  UNL1        0.1401
     40 F          62.6045   79.0863   11.7525 F       1  UNL1       -0.2042
     41 C          63.1097   81.5858   11.2556 C.ar    1  UNL1        0.0294
     42 C          63.2171   83.0073   11.7226 C.ar    1  UNL1        0.0005
@<TRIPOS>BOND
     1    24    25    1
     2    25    26    1
     3    26    27    1
     4    27    28    1
     5    28    29   am
     6    29    30    2
     7    29    23    1
     8    23    33    1
     9    33    34    1
    10    34    35    1
    11    35    36    1
    12    36    37   ar
    13    37    38   ar
    14    38    39   ar
    15    39    40    1
    16    39    41   ar
    17    41    42   ar
    18    23     1    1
    19     1     2   am
    20     2     3    2
    21     2     5    1
    22     5     6   ar
    23     6     7   ar
    24     7     8   ar
    25     8     9   ar
    26     9    10   ar
    27    10    11    1
    28    11    12    1
    29    12    13   ar
    30    13    14   ar
    31    14    15   ar
    32    15    19    1
    33    19    20    1
    34    19    21    1
    35    19    22    1
    36    15    16   ar
    37    16    17   ar
    38    17    18    1
    39    28    31    1
    40    31    32    1
    41    32    25    1
    42    42    36   ar
    43    10     5   ar
    44    17    12   ar
    45     1     4    1
@<TRIPOS>MOLECULE
*****
 42 45 0 0 0
SMALL
GASTEIGER

@<TRIPOS>ATOM
      1 N          65.1237   90.6770   13.8498 N.am    1  UNL1       -0.2927
      2 C          65.2348   91.6107   15.0184 C.2     1  UNL1        0.2508
      3 O          64.0218   91.9307   15.8408 O.2     1  UNL1       -0.2700
      4 H          65.9198   90.4670   13.3101 H       1  UNL1        0.1502
      5 C          66.5590   92.2246   15.3647 C.ar    1  UNL1        0.1068
      6 C          67.4837   91.5255   16.3166 C.ar    1  UNL1        0.0108
      7 C          68.8078   92.1393   16.6629 C.ar    1  UNL1        0.0210
      8 C          69.2072   93.4521   16.0573 C.ar    1  UNL1        0.1021
      9 N          68.2825   94.1512   15.1053 N.ar    1  UNL1       -0.2097
     10 C          66.9584   93.5374   14.7590 C.ar    1  UNL1        0.2340
     11 O          66.0337   94.2365   13.8070 O.3     1  UNL1       -0.4351
     12 C          66.3622   94.2887   12.3444 C.ar    1  UNL1        0.1576
     13 C          66.7267   93.0312   11.6123 C.ar    1  UNL1        0.0384
     14 C          67.0552   93.0834   10.1496 C.ar    1  UNL1        0.0070
     15 C          67.0193   94.3930    9.4191 C.ar    1  UNL1        0.0725
     16 C          66.6549   95.6505   10.1513 C.ar    1  UNL1        0.0183
     17 C          66.3264   95.5983   11.6139 C.ar    1  UNL1        0.0921
     18 CL         65.9619   96.8557   12.3461 Cl      1  UNL1       -0.0791
     19 C          67.3479   94.4452    7.9565 C.3     1  UNL1        0.4186
     20 F          67.6764   94.4974    6.4938 F       1  UNL1       -0.1659
     21 F          68.1863   93.2098    8.1008 F       1  UNL1       -0.1659
     22 F          66.5095   95.6806    7.8122 F       1  UNL1       -0.1659
     23 C          63.7995   90.0631   13.5035 C.3     1  UNL1        0.1789
     24 C          60.6698   86.0894    8.8490 C.3     1  UNL1        0.0897
     25 N          61.2842   87.1698    9.6888 N.3     1  UNL1       -0.2686
     26 C          61.2265   88.5978    9.2336 C.3     1  UNL1        0.0939
     27 C          61.8409   89.6782   10.0735 C.3     1  UNL1        0.1108
     28 N          62.5130   89.3305   11.3686 N.am    1  UNL1       -0.2753
     29 C          63.1274   90.4108   12.2084 C.2     1  UNL1        0.2462
     30 O          63.0696   91.8389   11.7532 O.2     1  UNL1       -0.2730
     31 C          62.5707   87.9024   11.8238 C.3     1  UNL1        0.1108
     32 C          61.9563   86.8221   10.9839 C.3     1  UNL1        0.0939
     33 C          63.1475   89.1016   14.4524 C.3     1  UNL1        0.1715
     34 O          63.9871   88.1416   15.2422 O.3     1  UNL1       -0.3467
     35 C          64.6036   86.9528   14.5663 C.3     1  UNL1        0.1687
     36 C          63.8887   85.6342   14.5690 C.ar    1  UNL1        0.0074
     37 C          63.7904   84.8318   13.3054 C.ar    1  UNL1        0.0005
     38 C          63.0755   83.5131   13.3081 C.ar    1  UNL1        0.0294
     39 C          62.4588   82.9969   14.5743 C.ar    1  UNL1        0.1401
     40 F          61.7439   81.6783   14.5770 F       1  UNL1       -0.2042
     41 C          62.5571   83.7993   15.8378 C.ar    1  UNL1        0.0294
     42 C          63.2721   85.1180   15.8352 C.ar    1  UNL1        0.0005
@<TRIPOS>BOND
     1    24    25    1
     2    25    26    1
     3    26    27    1
     4    27    28    1
     5    28    29   am
     6    29    30    2
     7    29    23    1
     8    23    33    1
     9    33    34    1
    10    34    35    1
    11    35    36    1
    12    36    37   ar
    13    37    38   ar
    14    38    39   ar
    15    39    40    1
    16    39    41   ar
    17    41    42   ar
    18    23     1    1
    19     1     2   am
    20     2     3    2
    21     2     5    1
    22     5     6   ar
    23     6     7   ar
    24     7     8   ar
    25     8     9   ar
    26     9    10   ar
    27    10    11    1
    28    11    12    1
    29    12    13   ar
    30    13    14   ar
    31    14    15   ar
    32    15    19    1
    33    19    20    1
    34    19    21    1
    35    19    22    1
    36    15    16   ar
    37    16    17   ar
    38    17    18    1
    39    28    31    1
    40    31    32    1
    41    32    25    1
    42    42    36   ar
    43    10     5   ar
    44    17    12   ar
    45     1     4    1
