@<TRIPOS>MOLECULE
*****
 52 55 0 0 0
SMALL
GASTEIGER

@<TRIPOS>ATOM
      1 C          61.8439   88.2994   11.4532 C.3     1  UNL1        0.0760
      2 C          62.5611   85.9708   10.5512 C.2     1  UNL1        0.2429
      3 O          62.6539   86.5363    9.1650 O.2     1  UNL1       -0.2732
      4 N          62.1561   86.8524   11.6953 N.am    1  UNL1       -0.3042
      5 H          62.0952   86.4812   12.6052 H       1  UNL1        0.1494
      6 CA         62.8733   84.5238   10.7934 C.3     1  UNL1        0.1793
      7 N          62.3270   81.7702   13.5986 N.am    1  UNL1       -0.2567
      8 C          62.5347   80.2981   13.7982 C.3     1  UNL1        0.1168
      9 C          62.7040   82.4110   12.2959 C.2     1  UNL1        0.3047
     10 O          63.2886   81.5796   11.1926 O.2     1  UNL1       -0.2526
     11 N          62.4963   83.8830   12.0963 N.am    1  UNL1       -0.2805
     12 H          62.1126   84.4287   12.8203 H       1  UNL1        0.1514
     13 C          61.7424   82.6015   14.7018 C.3     1  UNL1        0.1413
     14 C          63.0739   85.8090   16.4354 C.ar    1  UNL1        0.0875
     15 N          61.9589   84.8557   16.1221 N.ar    1  UNL1       -0.2453
     16 C          62.5113   83.7664   15.2513 C.ar    1  UNL1        0.0858
     17 C          63.9677   84.0465   15.0263 C.ar    1  UNL1        0.0530
     18 S          64.3154   85.3089   15.7581 S.2     1  UNL1       -0.0705
     19 C          63.1557   88.3965   16.6548 C.3     1  UNL1        0.0069
     20 C          62.9662   87.0453   17.2780 C.3     1  UNL1        0.0465
     21 C          62.6691   86.9304   18.7437 C.3     1  UNL1        0.0069
     22 C          63.5625   83.7175    9.7328 C.3     1  UNL1        0.1661
     23 O          64.9612   83.2238    9.9562 O.3     1  UNL1       -0.3798
     24 H          65.5670   83.9798   10.0048 H       1  UNL1        0.2105
     25 C          62.9077   89.3389   11.6472 C.3     1  UNL1        0.0216
     26 C          63.8036   89.2798   12.8488 C.3     1  UNL1        0.0217
     27 C          64.3400   90.5464   13.4474 C.3     1  UNL1        0.0792
     28 N          64.1125   91.8578   12.7558 N.am    1  UNL1       -0.2720
     29 C          65.1096   92.3602   11.7540 C.2     1  UNL1        0.4019
     30 O          66.3340   91.5512   11.4438 O.2     1  UNL1       -0.2264
     31 H          63.3089   92.3888   12.9594 H       1  UNL1        0.1527
     32 O          64.8821   93.6717   11.0624 O.3     1  UNL1       -0.4291
     33 C          65.8811   94.7808   11.2102 C.3     1  UNL1        0.2447
     34 C          66.5700   95.3360    9.9990 C.ar    1  UNL1        0.0714
     35 C          67.4993   94.5856    9.0916 C.ar    1  UNL1        0.1053
     36 N          67.9543   95.5250    8.0143 N.ar    1  UNL1       -0.2350
     37 C          67.3062   96.8560    8.2558 C.ar    1  UNL1        0.1343
     38 S          66.4507   96.7392    9.4824 S.2     1  UNL1       -0.0652
     39 C          65.1038   90.5014   14.7376 C.3     1  UNL1        0.0460
     40 C          66.2860   91.4021   14.9411 C.ar    1  UNL1       -0.0205
     41 C          67.5484   91.1696   14.1651 C.ar    1  UNL1       -0.0042
     42 C          68.7305   92.0702   14.3687 C.ar    1  UNL1       -0.0003
     43 C          68.6501   93.2034   15.3482 C.ar    1  UNL1       -0.0000
     44 C          67.3877   93.4360   16.1241 C.ar    1  UNL1       -0.0003
     45 C          66.2056   92.5353   15.9206 C.ar    1  UNL1       -0.0042
     46 C          60.4678   88.7069   11.0169 C.3     1  UNL1        0.0459
     47 C          60.0183   88.4439    9.6101 C.ar    1  UNL1       -0.0205
     48 C          59.4371   87.1100    9.2455 C.ar    1  UNL1       -0.0042
     49 C          58.9876   86.8470    7.8388 C.ar    1  UNL1       -0.0003
     50 C          59.1195   87.9179    6.7967 C.ar    1  UNL1       -0.0000
     51 C          59.7008   89.2517    7.1614 C.ar    1  UNL1       -0.0003
     52 C          60.1502   89.5147    8.5681 C.ar    1  UNL1       -0.0042
@<TRIPOS>BOND
     1    19    20    1
     2    20    21    1
     3    20    14    1
     4    14    15   ar
     5    15    16   ar
     6    16    13    1
     7    13     7    1
     8     7     8    1
     9     7     9   am
    10     9    10    2
    11     9    11   am
    12    11     6    1
    13     6    22    1
    14    22    23    1
    15     6     2    1
    16     2     3    2
    17     2     4   am
    18     4     1    1
    19     1    25    1
    20    25    26    1
    21    27    26    1
    22    27    39    1
    23    39    40    1
    24    40    41   ar
    25    41    42   ar
    26    42    43   ar
    27    43    44   ar
    28    44    45   ar
    29    27    28    1
    30    28    29   am
    31    29    30    2
    32    29    32    1
    33    32    33    1
    34    33    34    1
    35    34    35   ar
    36    35    36   ar
    37    36    37   ar
    38    37    38   ar
    39     1    46    1
    40    46    47    1
    41    47    48   ar
    42    48    49   ar
    43    49    50   ar
    44    50    51   ar
    45    51    52   ar
    46    16    17   ar
    47    17    18   ar
    48    18    14   ar
    49    45    40   ar
    50    38    34   ar
    51    52    47   ar
    52    11    12    1
    53    23    24    1
    54     4     5    1
    55    28    31    1
@<TRIPOS>MOLECULE
*****
 52 55 0 0 0
SMALL
GASTEIGER

@<TRIPOS>ATOM
      1 C          62.2197   87.0371   11.3536 C.3     1  UNL1        0.0760
      2 C          62.8345   89.5126   11.8476 C.2     1  UNL1        0.2429
      3 O          62.0471   89.4537   13.1230 O.2     1  UNL1       -0.2732
      4 N          62.9208   88.3043   10.9629 N.am    1  UNL1       -0.3042
      5 H          63.4376   88.3430   10.1258 H       1  UNL1        0.1494
      6 CA         63.5356   90.7799   11.4569 C.3     1  UNL1        0.1793
      7 N          66.0133   91.9581   14.3245 N.am    1  UNL1       -0.2567
      8 C          65.9737   92.3183   15.7800 C.3     1  UNL1        0.1168
      9 C          64.7547   91.5491   13.6185 C.2     1  UNL1        0.3047
     10 O          63.4563   91.5002   14.3681 O.2     1  UNL1       -0.2526
     11 N          64.7943   91.1889   12.1629 N.am    1  UNL1       -0.2805
     12 H          65.6465   91.2209   11.6709 H       1  UNL1        0.1514
     13 C          67.3116   92.0069   13.5749 C.3     1  UNL1        0.1413
     14 C          67.0473   94.1431   10.3449 C.ar    1  UNL1        0.0875
     15 N          66.7500   93.9240   11.7988 N.ar    1  UNL1       -0.2453
     16 C          67.3648   92.6178   12.2059 C.ar    1  UNL1        0.0858
     17 C          68.0421   92.0296   11.0036 C.ar    1  UNL1        0.0530
     18 S          67.8459   92.9723    9.8535 S.2     1  UNL1       -0.0705
     19 C          67.3353   95.6493    8.2476 C.3     1  UNL1        0.0069
     20 C          66.6210   95.3255    9.5263 C.3     1  UNL1        0.0465
     21 C          65.4803   96.1841    9.9862 C.3     1  UNL1        0.0069
     22 C          62.9780   91.6380   10.3603 C.3     1  UNL1        0.1661
     23 O          62.1381   91.0231    9.2803 O.3     1  UNL1       -0.3798
     24 H          62.6824   90.4183    8.7522 H       1  UNL1        0.2105
     25 C          62.6815   86.2636   12.5529 C.3     1  UNL1        0.0216
     26 C          63.5171   85.0308   12.3740 C.3     1  UNL1        0.0217
     27 C          64.2439   84.4408   13.5461 C.3     1  UNL1        0.0792
     28 N          64.2102   82.9598   13.7813 N.am    1  UNL1       -0.2720
     29 C          62.9722   82.3157   14.3314 C.2     1  UNL1        0.4019
     30 O          61.7679   83.1527   14.6463 O.2     1  UNL1       -0.2264
     31 H          65.0006   82.4104   13.5746 H       1  UNL1        0.1527
     32 O          62.9385   80.8346   14.5666 O.3     1  UNL1       -0.4291
     33 C          62.2671   79.9327   13.5738 C.3     1  UNL1        0.2447
     34 C          62.6022   80.0408   12.1157 C.ar    1  UNL1        0.0714
     35 C          62.6485   78.9066   11.1352 C.ar    1  UNL1        0.1053
     36 N          63.0248   79.4669    9.7956 N.ar    1  UNL1       -0.2350
     37 C          63.2112   80.9475    9.9483 C.ar    1  UNL1        0.1343
     38 S          62.9500   81.3021   11.3821 S.2     1  UNL1       -0.0652
     39 C          65.0044   85.3319   14.4829 C.3     1  UNL1        0.0460
     40 C          64.2650   86.2259   15.4337 C.ar    1  UNL1       -0.0205
     41 C          63.5016   85.6329   16.5807 C.ar    1  UNL1       -0.0042
     42 C          62.7622   86.5269   17.5315 C.ar    1  UNL1       -0.0003
     43 C          62.7863   88.0139   17.3353 C.ar    1  UNL1       -0.0000
     44 C          63.5497   88.6068   16.1884 C.ar    1  UNL1       -0.0003
     45 C          64.2891   87.7128   15.2376 C.ar    1  UNL1       -0.0042
     46 C          61.0568   86.5434   10.5449 C.3     1  UNL1        0.0459
     47 C          61.2847   85.9615    9.1813 C.ar    1  UNL1       -0.0205
     48 C          62.6178   85.3692    8.8319 C.ar    1  UNL1       -0.0042
     49 C          62.8457   84.7872    7.4683 C.ar    1  UNL1       -0.0003
     50 C          61.7405   84.7975    6.4541 C.ar    1  UNL1       -0.0000
     51 C          60.4074   85.3898    6.8036 C.ar    1  UNL1       -0.0003
     52 C          60.1795   85.9717    8.1672 C.ar    1  UNL1       -0.0042
@<TRIPOS>BOND
     1    19    20    1
     2    20    21    1
     3    20    14    1
     4    14    15   ar
     5    15    16   ar
     6    16    13    1
     7    13     7    1
     8     7     8    1
     9     7     9   am
    10     9    10    2
    11     9    11   am
    12    11     6    1
    13     6    22    1
    14    22    23    1
    15     6     2    1
    16     2     3    2
    17     2     4   am
    18     4     1    1
    19     1    25    1
    20    25    26    1
    21    27    26    1
    22    27    39    1
    23    39    40    1
    24    40    41   ar
    25    41    42   ar
    26    42    43   ar
    27    43    44   ar
    28    44    45   ar
    29    27    28    1
    30    28    29   am
    31    29    30    2
    32    29    32    1
    33    32    33    1
    34    33    34    1
    35    34    35   ar
    36    35    36   ar
    37    36    37   ar
    38    37    38   ar
    39     1    46    1
    40    46    47    1
    41    47    48   ar
    42    48    49   ar
    43    49    50   ar
    44    50    51   ar
    45    51    52   ar
    46    16    17   ar
    47    17    18   ar
    48    18    14   ar
    49    45    40   ar
    50    38    34   ar
    51    52    47   ar
    52    11    12    1
    53    23    24    1
    54     4     5    1
    55    28    31    1
@<TRIPOS>MOLECULE
*****
 52 55 0 0 0
SMALL
GASTEIGER

@<TRIPOS>ATOM
      1 C          62.0170   87.8513   11.4490 C.3     1  UNL1        0.0760
      2 C          62.7315   85.5221   10.5464 C.2     1  UNL1        0.2429
      3 O          62.7498   86.0689    9.1498 O.2     1  UNL1       -0.2732
      4 N          62.3651   86.4133   11.6961 N.am    1  UNL1       -0.3042
      5 H          62.3531   86.0544   12.6127 H       1  UNL1        0.1494
      6 CA         63.0797   84.0841   10.7935 C.3     1  UNL1        0.1793
      7 N          62.1082   81.2837   13.4324 N.am    1  UNL1       -0.2567
      8 C          61.9264   79.7959   13.4919 C.3     1  UNL1        0.1168
      9 C          62.5030   81.9400   12.1427 C.2     1  UNL1        0.3047
     10 O          62.7162   81.1086   10.9125 O.2     1  UNL1       -0.2526
     11 N          62.6848   83.4278   12.0832 N.am    1  UNL1       -0.2805
     12 H          62.5449   83.9735   12.8906 H       1  UNL1        0.1514
     13 C          61.8950   82.1151   14.6625 C.3     1  UNL1        0.1413
     14 C          63.6650   85.4724   15.4760 C.ar    1  UNL1        0.0875
     15 N          62.4208   84.6786   15.2078 N.ar    1  UNL1       -0.2453
     16 C          62.8228   83.2534   14.9684 C.ar    1  UNL1        0.0858
     17 C          64.3154   83.1664   15.0887 C.ar    1  UNL1        0.0530
     18 S          64.8360   84.5378   15.4024 S.2     1  UNL1       -0.0705
     19 C          64.4897   87.8561   14.8535 C.3     1  UNL1        0.0069
     20 C          63.7272   86.9426   15.7668 C.3     1  UNL1        0.0465
     21 C          63.0271   87.4993   16.9708 C.3     1  UNL1        0.0069
     22 C          63.8226   83.3025    9.7509 C.3     1  UNL1        0.1661
     23 O          64.9737   82.4268   10.1486 O.3     1  UNL1       -0.3798
     24 H          65.6978   82.9776   10.4852 H       1  UNL1        0.2105
     25 C          63.0831   88.9040   11.5202 C.3     1  UNL1        0.0216
     26 C          62.7160   90.3228   11.8394 C.3     1  UNL1        0.0217
     27 C          63.7747   91.3853   11.8592 C.3     1  UNL1        0.0792
     28 N          64.6032   91.5956   13.0919 N.am    1  UNL1       -0.2720
     29 C          64.0986   91.1251   14.4239 C.2     1  UNL1        0.4019
     30 O          62.7658   90.4443   14.5231 O.2     1  UNL1       -0.2264
     31 H          65.4780   92.0424   13.0267 H       1  UNL1        0.1527
     32 O          64.9271   91.3354   15.6565 O.3     1  UNL1       -0.4291
     33 C          65.7126   92.6021   15.8252 C.3     1  UNL1        0.2447
     34 C          67.1397   92.6661   15.3679 C.ar    1  UNL1        0.0714
     35 C          67.6953   92.0418   14.1222 C.ar    1  UNL1        0.1053
     36 N          69.1609   92.3555   14.0605 N.ar    1  UNL1       -0.2350
     37 C          69.5111   93.1736   15.2680 C.ar    1  UNL1        0.1343
     38 S          68.2619   93.3655   16.0760 S.2     1  UNL1       -0.0652
     39 C          64.0050   92.2373   10.6464 C.3     1  UNL1        0.0460
     40 C          65.3496   92.8593   10.4111 C.ar    1  UNL1       -0.0205
     41 C          65.4982   94.3518   10.4241 C.ar    1  UNL1       -0.0042
     42 C          66.8427   94.9738   10.1888 C.ar    1  UNL1       -0.0003
     43 C          68.0387   94.1031    9.9404 C.ar    1  UNL1       -0.0000
     44 C          67.8901   92.6106    9.9274 C.ar    1  UNL1       -0.0003
     45 C          66.5456   91.9887   10.1627 C.ar    1  UNL1       -0.0042
     46 C          60.6026   88.2365   11.1307 C.3     1  UNL1        0.0459
     47 C          60.1162   88.1990    9.7123 C.ar    1  UNL1       -0.0205
     48 C          59.5532   86.9292    9.1458 C.ar    1  UNL1       -0.0042
     49 C          59.0668   86.8917    7.7273 C.ar    1  UNL1       -0.0003
     50 C          59.1433   88.1240    6.8754 C.ar    1  UNL1       -0.0000
     51 C          59.7063   89.3937    7.4419 C.ar    1  UNL1       -0.0003
     52 C          60.1927   89.4312    8.8603 C.ar    1  UNL1       -0.0042
@<TRIPOS>BOND
     1    19    20    1
     2    20    21    1
     3    20    14    1
     4    14    15   ar
     5    15    16   ar
     6    16    13    1
     7    13     7    1
     8     7     8    1
     9     7     9   am
    10     9    10    2
    11     9    11   am
    12    11     6    1
    13     6    22    1
    14    22    23    1
    15     6     2    1
    16     2     3    2
    17     2     4   am
    18     4     1    1
    19     1    25    1
    20    25    26    1
    21    27    26    1
    22    27    39    1
    23    39    40    1
    24    40    41   ar
    25    41    42   ar
    26    42    43   ar
    27    43    44   ar
    28    44    45   ar
    29    27    28    1
    30    28    29   am
    31    29    30    2
    32    29    32    1
    33    32    33    1
    34    33    34    1
    35    34    35   ar
    36    35    36   ar
    37    36    37   ar
    38    37    38   ar
    39     1    46    1
    40    46    47    1
    41    47    48   ar
    42    48    49   ar
    43    49    50   ar
    44    50    51   ar
    45    51    52   ar
    46    16    17   ar
    47    17    18   ar
    48    18    14   ar
    49    45    40   ar
    50    38    34   ar
    51    52    47   ar
    52    11    12    1
    53    23    24    1
    54     4     5    1
    55    28    31    1
@<TRIPOS>MOLECULE
*****
 52 55 0 0 0
SMALL
GASTEIGER

@<TRIPOS>ATOM
      1 C          61.9335   89.5809   10.6686 C.3     1  UNL1        0.0760
      2 C          61.8208   87.0310   11.1537 C.2     1  UNL1        0.2429
      3 O          60.6336   87.2527   12.0433 O.2     1  UNL1       -0.2732
      4 N          62.4708   88.1951   10.4664 N.am    1  UNL1       -0.3042
      5 H          63.2500   88.0496    9.8825 H       1  UNL1        0.1494
      6 CA         62.3580   85.6452   10.9514 C.3     1  UNL1        0.1793
      7 N          62.7961   82.2733   12.9980 N.am    1  UNL1       -0.2567
      8 C          63.2336   80.8568   12.7694 C.3     1  UNL1        0.1168
      9 C          62.7958   83.2510   11.8604 C.2     1  UNL1        0.3047
     10 O          63.2331   82.8123   10.4942 O.2     1  UNL1       -0.2526
     11 N          62.3583   84.6674   12.0890 N.am    1  UNL1       -0.2805
     12 H          62.0713   84.9554   12.9857 H       1  UNL1        0.1514
     13 C          62.3589   82.7120   14.3641 C.3     1  UNL1        0.1413
     14 C          63.2656   85.9492   16.3041 C.ar    1  UNL1        0.0875
     15 N          62.2806   84.8862   15.9170 N.ar    1  UNL1       -0.2453
     16 C          62.9721   83.9277   14.9934 C.ar    1  UNL1        0.0858
     17 C          64.3845   84.3982   14.8097 C.ar    1  UNL1        0.0530
     18 S          64.5659   85.6476   15.6197 S.2     1  UNL1       -0.0705
     19 C          62.6351   86.8685   18.6509 C.3     1  UNL1        0.0069
     20 C          62.9974   87.1100   17.2155 C.3     1  UNL1        0.0465
     21 C          63.0916   88.5123   16.6915 C.3     1  UNL1        0.0069
     22 C          62.8950   85.2371    9.6116 C.3     1  UNL1        0.1661
     23 O          62.4405   85.9501    8.3726 O.3     1  UNL1       -0.3798
     24 H          61.4968   85.7783    8.2285 H       1  UNL1        0.2105
     25 C          62.7146   90.5783   11.4718 C.3     1  UNL1        0.0216
     26 C          63.8554   91.3205   10.8413 C.3     1  UNL1        0.0217
     27 C          64.8943   91.9728   11.7046 C.3     1  UNL1        0.0792
     28 N          64.5663   92.3470   13.1197 N.am    1  UNL1       -0.2720
     29 C          64.6059   91.3061   14.1991 C.2     1  UNL1        0.4019
     30 O          64.9735   89.8911   13.8634 O.2     1  UNL1       -0.2264
     31 H          64.3251   93.2757   13.3400 H       1  UNL1        0.1527
     32 O          64.2779   91.6802   15.6142 O.3     1  UNL1       -0.4291
     33 C          65.2597   92.4702   16.4278 C.3     1  UNL1        0.2447
     34 C          66.6446   92.7118   15.9049 C.ar    1  UNL1        0.0714
     35 C          67.0139   93.6309   14.7785 C.ar    1  UNL1        0.1053
     36 N          68.5010   93.5638   14.5940 N.ar    1  UNL1       -0.2350
     37 C          69.0509   92.6032   15.6064 C.ar    1  UNL1        0.1343
     38 S          67.9035   92.0766   16.4165 S.2     1  UNL1       -0.0652
     39 C          66.2611   92.2510   11.1528 C.3     1  UNL1        0.0460
     40 C          66.5780   93.6003   10.5791 C.ar    1  UNL1       -0.0205
     41 C          67.3353   93.7075    9.2887 C.ar    1  UNL1       -0.0042
     42 C          67.6521   95.0567    8.7151 C.ar    1  UNL1       -0.0003
     43 C          67.2117   96.2987    9.4317 C.ar    1  UNL1       -0.0000
     44 C          66.4544   96.1915   10.7220 C.ar    1  UNL1       -0.0003
     45 C          66.1376   94.8422   11.2957 C.ar    1  UNL1       -0.0042
     46 C          60.6151   89.9693   10.0677 C.3     1  UNL1        0.0459
     47 C          60.0337   89.1588    8.9474 C.ar    1  UNL1       -0.0205
     48 C          59.9016   89.7578    7.5785 C.ar    1  UNL1       -0.0042
     49 C          59.3202   88.9473    6.4582 C.ar    1  UNL1       -0.0003
     50 C          58.8708   87.5379    6.7068 C.ar    1  UNL1       -0.0000
     51 C          59.0029   86.9391    8.0757 C.ar    1  UNL1       -0.0003
     52 C          59.5843   87.7495    9.1960 C.ar    1  UNL1       -0.0042
@<TRIPOS>BOND
     1    19    20    1
     2    20    21    1
     3    20    14    1
     4    14    15   ar
     5    15    16   ar
     6    16    13    1
     7    13     7    1
     8     7     8    1
     9     7     9   am
    10     9    10    2
    11     9    11   am
    12    11     6    1
    13     6    22    1
    14    22    23    1
    15     6     2    1
    16     2     3    2
    17     2     4   am
    18     4     1    1
    19     1    25    1
    20    25    26    1
    21    27    26    1
    22    27    39    1
    23    39    40    1
    24    40    41   ar
    25    41    42   ar
    26    42    43   ar
    27    43    44   ar
    28    44    45   ar
    29    27    28    1
    30    28    29   am
    31    29    30    2
    32    29    32    1
    33    32    33    1
    34    33    34    1
    35    34    35   ar
    36    35    36   ar
    37    36    37   ar
    38    37    38   ar
    39     1    46    1
    40    46    47    1
    41    47    48   ar
    42    48    49   ar
    43    49    50   ar
    44    50    51   ar
    45    51    52   ar
    46    16    17   ar
    47    17    18   ar
    48    18    14   ar
    49    45    40   ar
    50    38    34   ar
    51    52    47   ar
    52    11    12    1
    53    23    24    1
    54     4     5    1
    55    28    31    1
@<TRIPOS>MOLECULE
*****
 52 55 0 0 0
SMALL
GASTEIGER

@<TRIPOS>ATOM
      1 C          63.8233   87.1169   13.9591 C.3     1  UNL1        0.0760
      2 C          64.0432   89.5269   14.9046 C.2     1  UNL1        0.2429
      3 O          62.6809   89.4092   15.5212 O.2     1  UNL1       -0.2732
      4 N          64.6144   88.3807   14.1235 N.am    1  UNL1       -0.3042
      5 H          65.5086   88.4579   13.7188 H       1  UNL1        0.1494
      6 CA         64.8342   90.7906   15.0690 C.3     1  UNL1        0.1793
      7 N          68.3401   92.0501   13.7004 N.am    1  UNL1       -0.2567
      8 C          69.5931   92.6944   14.2150 C.3     1  UNL1        0.1168
      9 C          67.2137   91.7425   14.6420 C.2     1  UNL1        0.3047
     10 O          67.3402   92.0793   16.0982 O.2     1  UNL1       -0.2526
     11 N          65.9607   91.0982   14.1273 N.am    1  UNL1       -0.2805
     12 H          65.8776   90.8771   13.1716 H       1  UNL1        0.1514
     13 C          68.2135   91.7133   12.2442 C.3     1  UNL1        0.1413
     14 C          66.7643   94.7676   10.3372 C.ar    1  UNL1        0.0875
     15 N          67.0282   94.0246   11.6133 N.ar    1  UNL1       -0.2453
     16 C          67.7534   92.7572   11.2702 C.ar    1  UNL1        0.0858
     17 C          67.9377   92.7169    9.7821 C.ar    1  UNL1        0.0530
     18 S          67.3264   93.9594    9.2055 S.2     1  UNL1       -0.0705
     19 C          65.6834   96.8531   11.4475 C.3     1  UNL1        0.0069
     20 C          66.0616   96.0872   10.2145 C.3     1  UNL1        0.0465
     21 C          65.7372   96.6408    8.8587 C.3     1  UNL1        0.0069
     22 C          64.4989   91.7468   16.1749 C.3     1  UNL1        0.1661
     23 O          63.1219   91.7526   16.7697 O.3     1  UNL1       -0.3798
     24 H          62.4825   92.0461   16.1020 H       1  UNL1        0.2105
     25 C          62.7443   87.0373   12.9202 C.3     1  UNL1        0.0216
     26 C          62.7923   87.9342   11.7189 C.3     1  UNL1        0.0217
     27 C          62.0982   87.5292   10.4522 C.3     1  UNL1        0.0792
     28 N          61.6831   88.5726    9.4579 N.am    1  UNL1       -0.2720
     29 C          60.2274   88.8154    9.1890 C.2     1  UNL1        0.4019
     30 O          59.1870   88.0146    9.9144 O.2     1  UNL1       -0.2264
     31 H          62.3660   89.0982    8.9817 H       1  UNL1        0.1527
     32 O          59.8123   89.8589    8.1946 O.3     1  UNL1       -0.4291
     33 C          59.4683   89.4614    6.7897 C.3     1  UNL1        0.2447
     34 C          59.2309   90.5151    5.7489 C.ar    1  UNL1        0.0714
     35 C          57.8999   91.0894    5.3632 C.ar    1  UNL1        0.1053
     36 N          58.1292   92.1088    4.2870 N.ar    1  UNL1       -0.2350
     37 C          59.6018   92.1646    4.0075 C.ar    1  UNL1        0.1343
     38 S          60.2827   91.1796    4.9110 S.2     1  UNL1       -0.0652
     39 C          61.8194   86.0807   10.1800 C.3     1  UNL1        0.0460
     40 C          61.7976   85.5734    8.7685 C.ar    1  UNL1       -0.0205
     41 C          63.0669   85.1070    8.1196 C.ar    1  UNL1       -0.0042
     42 C          63.0451   84.5998    6.7081 C.ar    1  UNL1       -0.0003
     43 C          61.7540   84.5590    5.9457 C.ar    1  UNL1       -0.0000
     44 C          60.4847   85.0254    6.5946 C.ar    1  UNL1       -0.0003
     45 C          60.5065   85.5326    8.0061 C.ar    1  UNL1       -0.0042
     46 C          64.1113   85.9327   14.8337 C.3     1  UNL1        0.0459
     47 C          63.7568   84.5519   14.3671 C.ar    1  UNL1       -0.0205
     48 C          62.6171   83.8141   15.0050 C.ar    1  UNL1       -0.0042
     49 C          62.2627   82.4333   14.5384 C.ar    1  UNL1       -0.0003
     50 C          63.0479   81.7903   13.4339 C.ar    1  UNL1       -0.0000
     51 C          64.1875   82.5280   12.7960 C.ar    1  UNL1       -0.0003
     52 C          64.5420   83.9088   13.2626 C.ar    1  UNL1       -0.0042
@<TRIPOS>BOND
     1    19    20    1
     2    20    21    1
     3    20    14    1
     4    14    15   ar
     5    15    16   ar
     6    16    13    1
     7    13     7    1
     8     7     8    1
     9     7     9   am
    10     9    10    2
    11     9    11   am
    12    11     6    1
    13     6    22    1
    14    22    23    1
    15     6     2    1
    16     2     3    2
    17     2     4   am
    18     4     1    1
    19     1    25    1
    20    25    26    1
    21    27    26    1
    22    27    39    1
    23    39    40    1
    24    40    41   ar
    25    41    42   ar
    26    42    43   ar
    27    43    44   ar
    28    44    45   ar
    29    27    28    1
    30    28    29   am
    31    29    30    2
    32    29    32    1
    33    32    33    1
    34    33    34    1
    35    34    35   ar
    36    35    36   ar
    37    36    37   ar
    38    37    38   ar
    39     1    46    1
    40    46    47    1
    41    47    48   ar
    42    48    49   ar
    43    49    50   ar
    44    50    51   ar
    45    51    52   ar
    46    16    17   ar
    47    17    18   ar
    48    18    14   ar
    49    45    40   ar
    50    38    34   ar
    51    52    47   ar
    52    11    12    1
    53    23    24    1
    54     4     5    1
    55    28    31    1
@<TRIPOS>MOLECULE
*****
 52 55 0 0 0
SMALL
GASTEIGER

@<TRIPOS>ATOM
      1 C          63.1849   85.8707   12.8809 C.3     1  UNL1        0.0760
      2 C          63.5710   87.6902   14.6950 C.2     1  UNL1        0.2429
      3 O          63.2421   86.6925   15.7656 O.2     1  UNL1       -0.2732
      4 N          63.5424   87.2793   13.2526 N.am    1  UNL1       -0.3042
      5 H          63.7583   87.9341   12.5498 H       1  UNL1        0.1494
      6 CA         63.9285   89.0988   15.0666 C.3     1  UNL1        0.1793
      7 N          64.3156   91.3588   11.8274 N.am    1  UNL1       -0.2567
      8 C          63.5061   91.7844   10.6383 C.3     1  UNL1        0.1168
      9 C          63.7174   90.4416   12.8524 C.2     1  UNL1        0.3047
     10 O          62.3097   89.9499   12.6885 O.2     1  UNL1       -0.2526
     11 N          64.5268   90.0161   14.0414 N.am    1  UNL1       -0.2805
     12 H          65.4507   90.3388   14.1490 H       1  UNL1        0.1514
     13 C          65.7231   91.8505   11.9913 C.3     1  UNL1        0.1413
     14 C          66.6632   94.7994    9.6491 C.ar    1  UNL1        0.0875
     15 N          65.7870   94.1926   10.7045 N.ar    1  UNL1       -0.2453
     16 C          66.3014   92.8145   10.9980 C.ar    1  UNL1        0.0858
     17 C          67.4955   92.5695   10.1239 C.ar    1  UNL1        0.0530
     18 S          67.7192   93.7963    9.2902 S.2     1  UNL1       -0.0705
     19 C          67.6930   96.8560    8.4408 C.3     1  UNL1        0.0069
     20 C          66.5103   96.1689    9.0564 C.3     1  UNL1        0.0465
     21 C          65.1747   96.8512    9.0795 C.3     1  UNL1        0.0069
     22 C          63.6879   89.5901   16.4632 C.3     1  UNL1        0.1661
     23 O          63.3906   91.0399   16.7074 O.3     1  UNL1       -0.3798
     24 H          64.1688   91.5723   16.4800 H       1  UNL1        0.2105
     25 C          61.9741   85.6019   12.0374 C.3     1  UNL1        0.0216
     26 C          61.3787   86.7010   11.2082 C.3     1  UNL1        0.0217
     27 C          61.8457   86.9142    9.7988 C.3     1  UNL1        0.0792
     28 N          61.4384   88.1501    9.0527 N.am    1  UNL1       -0.2720
     29 C          60.0072   88.3442    8.6477 C.2     1  UNL1        0.4019
     30 O          58.9833   87.3025    8.9889 O.2     1  UNL1       -0.2264
     31 H          62.1105   88.8338    8.8287 H       1  UNL1        0.1527
     32 O          59.5999   89.5801    7.9016 O.3     1  UNL1       -0.4291
     33 C          58.9648   89.4637    6.5477 C.3     1  UNL1        0.2447
     34 C          59.0706   90.5961    5.5697 C.ar    1  UNL1        0.0714
     35 C          57.9239   91.3670    4.9859 C.ar    1  UNL1        0.1053
     36 N          58.4863   92.4038    4.0592 N.ar    1  UNL1       -0.2350
     37 C          59.9806   92.2738    4.0704 C.ar    1  UNL1        0.1343
     38 S          60.3417   91.1566    5.0039 S.2     1  UNL1       -0.0652
     39 C          62.7200   85.8916    9.1356 C.3     1  UNL1        0.0460
     40 C          62.3034   85.2822    7.8298 C.ar    1  UNL1       -0.0205
     41 C          63.3425   84.7923    6.8653 C.ar    1  UNL1       -0.0042
     42 C          62.9258   84.1828    5.5596 C.ar    1  UNL1       -0.0003
     43 C          61.4701   84.0633    5.2183 C.ar    1  UNL1       -0.0000
     44 C          60.4310   84.5532    6.1828 C.ar    1  UNL1       -0.0003
     45 C          60.8476   85.1627    7.4885 C.ar    1  UNL1       -0.0042
     46 C          64.0383   84.7309   13.3529 C.3     1  UNL1        0.0459
     47 C          63.6288   83.3173   13.0630 C.ar    1  UNL1       -0.0205
     48 C          63.7024   82.7875   11.6616 C.ar    1  UNL1       -0.0042
     49 C          63.2929   81.3739   11.3718 C.ar    1  UNL1       -0.0003
     50 C          62.8099   80.4901   12.4834 C.ar    1  UNL1       -0.0000
     51 C          62.7363   81.0199   13.8847 C.ar    1  UNL1       -0.0003
     52 C          63.1458   82.4335   14.1746 C.ar    1  UNL1       -0.0042
@<TRIPOS>BOND
     1    19    20    1
     2    20    21    1
     3    20    14    1
     4    14    15   ar
     5    15    16   ar
     6    16    13    1
     7    13     7    1
     8     7     8    1
     9     7     9   am
    10     9    10    2
    11     9    11   am
    12    11     6    1
    13     6    22    1
    14    22    23    1
    15     6     2    1
    16     2     3    2
    17     2     4   am
    18     4     1    1
    19     1    25    1
    20    25    26    1
    21    27    26    1
    22    27    39    1
    23    39    40    1
    24    40    41   ar
    25    41    42   ar
    26    42    43   ar
    27    43    44   ar
    28    44    45   ar
    29    27    28    1
    30    28    29   am
    31    29    30    2
    32    29    32    1
    33    32    33    1
    34    33    34    1
    35    34    35   ar
    36    35    36   ar
    37    36    37   ar
    38    37    38   ar
    39     1    46    1
    40    46    47    1
    41    47    48   ar
    42    48    49   ar
    43    49    50   ar
    44    50    51   ar
    45    51    52   ar
    46    16    17   ar
    47    17    18   ar
    48    18    14   ar
    49    45    40   ar
    50    38    34   ar
    51    52    47   ar
    52    11    12    1
    53    23    24    1
    54     4     5    1
    55    28    31    1
@<TRIPOS>MOLECULE
*****
 52 55 0 0 0
SMALL
GASTEIGER

@<TRIPOS>ATOM
      1 C          62.4042   86.9927   11.9403 C.3     1  UNL1        0.0760
      2 C          62.8828   89.5346   12.1843 C.2     1  UNL1        0.2429
      3 O          62.0257   89.5779   13.4145 O.2     1  UNL1       -0.2732
      4 N          63.0721   88.2420   11.4471 N.am    1  UNL1       -0.3042
      5 H          63.6346   88.2136   10.6397 H       1  UNL1        0.1494
      6 CA         63.5506   90.7840   11.6911 C.3     1  UNL1        0.1793
      7 N          66.2433   92.0272   14.3282 N.am    1  UNL1       -0.2567
      8 C          66.3217   92.3987   15.7794 C.3     1  UNL1        0.1168
      9 C          64.9362   91.5914   13.7352 C.2     1  UNL1        0.3047
     10 O          63.7076   91.5271   14.5934 O.2     1  UNL1       -0.2526
     11 N          64.8578   91.2198   12.2841 N.am    1  UNL1       -0.2805
     12 H          65.6641   91.2619   11.7209 H       1  UNL1        0.1514
     13 C          67.4718   92.0914   13.4701 C.3     1  UNL1        0.1413
     14 C          66.9219   94.2671   10.3032 C.ar    1  UNL1        0.0875
     15 N          66.7518   94.0280   11.7742 N.ar    1  UNL1       -0.2453
     16 C          67.4045   92.7199   12.1097 C.ar    1  UNL1        0.0858
     17 C          67.9781   92.1504   10.8461 C.ar    1  UNL1        0.0530
     18 S          67.6799   93.1067    9.7295 S.2     1  UNL1       -0.0705
     19 C          67.0262   95.8046    8.2114 C.3     1  UNL1        0.0069
     20 C          66.4220   95.4577    9.5398 C.3     1  UNL1        0.0465
     21 C          65.3179   96.3012   10.1048 C.3     1  UNL1        0.0069
     22 C          62.9114   91.5974   10.6051 C.3     1  UNL1        0.1661
     23 O          62.3560   90.9190    9.3880 O.3     1  UNL1       -0.3798
     24 H          63.0800   90.5157    8.8839 H       1  UNL1        0.2105
     25 C          60.9594   86.7405   11.6261 C.3     1  UNL1        0.0216
     26 C          60.1405   87.8047   10.9576 C.3     1  UNL1        0.0217
     27 C          60.0395   87.8444    9.4615 C.3     1  UNL1        0.0792
     28 N          60.2802   89.1301    8.7274 N.am    1  UNL1       -0.2720
     29 C          59.5657   89.4020    7.4368 C.2     1  UNL1        0.4019
     30 O          58.6105   88.3881    6.8803 O.2     1  UNL1       -0.2264
     31 H          60.9071   89.7956    9.0927 H       1  UNL1        0.1527
     32 O          59.8064   90.6878    6.7027 O.3     1  UNL1       -0.4291
     33 C          59.3181   90.8497    5.2937 C.3     1  UNL1        0.2447
     34 C          60.1568   91.5822    4.2888 C.ar    1  UNL1        0.0714
     35 C          61.6196   91.3664    4.0363 C.ar    1  UNL1        0.1053
     36 N          62.0469   92.3099    2.9513 N.ar    1  UNL1       -0.2350
     37 C          60.8482   93.1089    2.5332 C.ar    1  UNL1        0.1343
     38 S          59.6801   92.6591    3.3598 S.2     1  UNL1       -0.0652
     39 C          59.6978   86.5983    8.6995 C.3     1  UNL1        0.0460
     40 C          60.7682   85.8579    7.9539 C.ar    1  UNL1       -0.0205
     41 C          60.4371   85.1477    6.6749 C.ar    1  UNL1       -0.0042
     42 C          61.5075   84.4073    5.9293 C.ar    1  UNL1       -0.0003
     43 C          62.9091   84.3770    6.4628 C.ar    1  UNL1       -0.0000
     44 C          63.2403   85.0872    7.7418 C.ar    1  UNL1       -0.0003
     45 C          62.1699   85.8276    8.4874 C.ar    1  UNL1       -0.0042
     46 C          63.1813   85.9955   12.7477 C.3     1  UNL1        0.0459
     47 C          63.1131   84.5368   12.4051 C.ar    1  UNL1       -0.0205
     48 C          63.6622   84.0469   11.0979 C.ar    1  UNL1       -0.0042
     49 C          63.5940   82.5881   10.7553 C.ar    1  UNL1       -0.0003
     50 C          62.9767   81.6192   11.7199 C.ar    1  UNL1       -0.0000
     51 C          62.4277   82.1091   13.0270 C.ar    1  UNL1       -0.0003
     52 C          62.4959   83.5679   13.3696 C.ar    1  UNL1       -0.0042
@<TRIPOS>BOND
     1    19    20    1
     2    20    21    1
     3    20    14    1
     4    14    15   ar
     5    15    16   ar
     6    16    13    1
     7    13     7    1
     8     7     8    1
     9     7     9   am
    10     9    10    2
    11     9    11   am
    12    11     6    1
    13     6    22    1
    14    22    23    1
    15     6     2    1
    16     2     3    2
    17     2     4   am
    18     4     1    1
    19     1    25    1
    20    25    26    1
    21    27    26    1
    22    27    39    1
    23    39    40    1
    24    40    41   ar
    25    41    42   ar
    26    42    43   ar
    27    43    44   ar
    28    44    45   ar
    29    27    28    1
    30    28    29   am
    31    29    30    2
    32    29    32    1
    33    32    33    1
    34    33    34    1
    35    34    35   ar
    36    35    36   ar
    37    36    37   ar
    38    37    38   ar
    39     1    46    1
    40    46    47    1
    41    47    48   ar
    42    48    49   ar
    43    49    50   ar
    44    50    51   ar
    45    51    52   ar
    46    16    17   ar
    47    17    18   ar
    48    18    14   ar
    49    45    40   ar
    50    38    34   ar
    51    52    47   ar
    52    11    12    1
    53    23    24    1
    54     4     5    1
    55    28    31    1
@<TRIPOS>MOLECULE
*****
 52 55 0 0 0
SMALL
GASTEIGER

@<TRIPOS>ATOM
      1 C          63.1644   85.7685   12.6684 C.3     1  UNL1        0.0760
      2 C          64.1353   87.3779   14.4621 C.2     1  UNL1        0.2429
      3 O          64.7771   86.2147   15.1584 O.2     1  UNL1       -0.2732
      4 N          63.3289   87.1549   13.2170 N.am    1  UNL1       -0.3042
      5 H          62.9076   87.9183   12.7600 H       1  UNL1        0.1494
      6 CA         64.2998   88.7643   15.0107 C.3     1  UNL1        0.1793
      7 N          66.3580   92.0690   14.2405 N.am    1  UNL1       -0.2567
      8 C          66.4719   93.4772   14.7444 C.3     1  UNL1        0.1168
      9 C          65.3859   91.1207   14.8775 C.2     1  UNL1        0.3047
     10 O          64.5276   91.5807   16.0186 O.2     1  UNL1       -0.2526
     11 N          65.2720   89.7125   14.3736 N.am    1  UNL1       -0.2805
     12 H          65.8353   89.4106   13.6247 H       1  UNL1        0.1514
     13 C          67.2162   91.6090   13.0995 C.3     1  UNL1        0.1413
     14 C          67.0291   94.2295   10.2423 C.ar    1  UNL1        0.0875
     15 N          66.7243   93.7978   11.6462 N.ar    1  UNL1       -0.2453
     16 C          67.2912   92.4229   11.8417 C.ar    1  UNL1        0.0858
     17 C          67.9463   92.0048   10.5587 C.ar    1  UNL1        0.0530
     18 S          67.7843   93.1213    9.5702 S.2     1  UNL1       -0.0705
     19 C          65.7233   96.4733   10.3456 C.3     1  UNL1        0.0069
     20 C          66.6458   95.5393    9.6198 C.3     1  UNL1        0.0465
     21 C          67.1851   95.9152    8.2716 C.3     1  UNL1        0.0069
     22 C          63.4923   89.2024   16.1964 C.3     1  UNL1        0.1661
     23 O          62.0528   89.5868   16.0227 O.3     1  UNL1       -0.3798
     24 H          61.9956   90.3899   15.4817 H       1  UNL1        0.2105
     25 C          62.1874   85.5118   11.5596 C.3     1  UNL1        0.0216
     26 C          62.3203   86.2456   10.2581 C.3     1  UNL1        0.0217
     27 C          61.3384   87.3217    9.9002 C.3     1  UNL1        0.0792
     28 N          60.6728   87.3127    8.5560 N.am    1  UNL1       -0.2720
     29 C          59.8338   88.4798    8.1267 C.2     1  UNL1        0.4019
     30 O          59.6605   89.6557    9.0416 O.2     1  UNL1       -0.2264
     31 H          60.7865   86.5409    7.9555 H       1  UNL1        0.1527
     32 O          59.1682   88.4708    6.7825 O.3     1  UNL1       -0.4291
     33 C          58.3875   89.6668    6.3242 C.3     1  UNL1        0.2447
     34 C          59.0353   90.6919    5.4413 C.ar    1  UNL1        0.0714
     35 C          60.4961   90.7742    5.1106 C.ar    1  UNL1        0.1053
     36 N          60.6996   91.9479    4.1990 N.ar    1  UNL1       -0.2350
     37 C          59.3646   92.5909    3.9662 C.ar    1  UNL1        0.1343
     38 S          58.3360   91.8147    4.7340 S.2     1  UNL1       -0.0652
     39 C          61.0223   88.4067   10.8864 C.3     1  UNL1        0.0460
     40 C          61.9690   89.5564   11.0658 C.ar    1  UNL1       -0.0205
     41 C          62.1952   90.1358   12.4307 C.ar    1  UNL1       -0.0042
     42 C          63.1419   91.2854   12.6099 C.ar    1  UNL1       -0.0003
     43 C          63.8623   91.8557   11.4243 C.ar    1  UNL1       -0.0000
     44 C          63.6360   91.2763   10.0593 C.ar    1  UNL1       -0.0003
     45 C          62.6894   90.1267    9.8801 C.ar    1  UNL1       -0.0042
     46 C          63.9769   84.6389   13.2287 C.3     1  UNL1        0.0459
     47 C          63.4032   83.2537   13.2758 C.ar    1  UNL1       -0.0205
     48 C          62.4465   82.8749   14.3673 C.ar    1  UNL1       -0.0042
     49 C          61.8728   81.4897   14.4144 C.ar    1  UNL1       -0.0003
     50 C          62.2559   80.4834   13.3700 C.ar    1  UNL1       -0.0000
     51 C          63.2125   80.8622   12.2786 C.ar    1  UNL1       -0.0003
     52 C          63.7862   82.2474   12.2315 C.ar    1  UNL1       -0.0042
@<TRIPOS>BOND
     1    19    20    1
     2    20    21    1
     3    20    14    1
     4    14    15   ar
     5    15    16   ar
     6    16    13    1
     7    13     7    1
     8     7     8    1
     9     7     9   am
    10     9    10    2
    11     9    11   am
    12    11     6    1
    13     6    22    1
    14    22    23    1
    15     6     2    1
    16     2     3    2
    17     2     4   am
    18     4     1    1
    19     1    25    1
    20    25    26    1
    21    27    26    1
    22    27    39    1
    23    39    40    1
    24    40    41   ar
    25    41    42   ar
    26    42    43   ar
    27    43    44   ar
    28    44    45   ar
    29    27    28    1
    30    28    29   am
    31    29    30    2
    32    29    32    1
    33    32    33    1
    34    33    34    1
    35    34    35   ar
    36    35    36   ar
    37    36    37   ar
    38    37    38   ar
    39     1    46    1
    40    46    47    1
    41    47    48   ar
    42    48    49   ar
    43    49    50   ar
    44    50    51   ar
    45    51    52   ar
    46    16    17   ar
    47    17    18   ar
    48    18    14   ar
    49    45    40   ar
    50    38    34   ar
    51    52    47   ar
    52    11    12    1
    53    23    24    1
    54     4     5    1
    55    28    31    1
@<TRIPOS>MOLECULE
*****
 52 55 0 0 0
SMALL
GASTEIGER

@<TRIPOS>ATOM
      1 C          62.0529   87.5822   11.1584 C.3     1  UNL1        0.0760
      2 C          63.1989   89.7080   12.1163 C.2     1  UNL1        0.2429
      3 O          62.8794   90.4498   10.8524 O.2     1  UNL1       -0.2732
      4 N          62.7856   88.2741   12.2694 N.am    1  UNL1       -0.3042
      5 H          62.9953   87.7873   13.0990 H       1  UNL1        0.1494
      6 CA         63.9316   90.4000   13.2273 C.3     1  UNL1        0.1793
      7 N          67.4082   92.2111   13.8461 N.am    1  UNL1       -0.2567
      8 C          68.0854   93.0356   14.9004 C.3     1  UNL1        0.1168
      9 C          66.0085   91.7178   14.0639 C.2     1  UNL1        0.3047
     10 O          65.2859   92.0490   15.3360 O.2     1  UNL1       -0.2526
     11 N          65.3314   90.8933   13.0095 N.am    1  UNL1       -0.2805
     12 H          65.8056   90.6759   12.1746 H       1  UNL1        0.1514
     13 C          68.1308   91.8799   12.5740 C.3     1  UNL1        0.1413
     14 C          67.1380   94.4573    9.8470 C.ar    1  UNL1        0.0875
     15 N          67.1343   93.9915   11.2728 N.ar    1  UNL1       -0.2453
     16 C          67.8888   92.6968   11.3395 C.ar    1  UNL1        0.0858
     17 C          68.3587   92.3624    9.9548 C.ar    1  UNL1        0.0530
     18 S          67.8948   93.4504    9.0323 S.2     1  UNL1       -0.0705
     19 C          67.0556   96.3890    8.1114 C.3     1  UNL1        0.0069
     20 C          66.4975   95.7100    9.3270 C.3     1  UNL1        0.0465
     21 C          65.2988   96.2839   10.0225 C.3     1  UNL1        0.0069
     22 C          63.2646   90.5987   14.5561 C.3     1  UNL1        0.1661
     23 O          62.0050   89.8522   14.8821 O.3     1  UNL1       -0.3798
     24 H          61.2917   90.1503   14.2962 H       1  UNL1        0.2105
     25 C          62.7815   86.6269   10.2603 C.3     1  UNL1        0.0216
     26 C          62.3241   85.2025   10.1517 C.3     1  UNL1        0.0217
     27 C          62.8027   84.1834   11.1430 C.3     1  UNL1        0.0792
     28 N          63.3406   84.6247   12.4719 N.am    1  UNL1       -0.2720
     29 C          64.6079   84.0246   13.0048 C.2     1  UNL1        0.4019
     30 O          65.3372   82.9832   12.2089 O.2     1  UNL1       -0.2264
     31 H          62.8619   85.3082   12.9943 H       1  UNL1        0.1527
     32 O          65.1457   84.4659   14.3337 O.3     1  UNL1       -0.4291
     33 C          64.2769   84.3978   15.5545 C.3     1  UNL1        0.2447
     34 C          63.7107   85.6559   16.1432 C.ar    1  UNL1        0.0714
     35 C          64.0449   87.0556   15.7200 C.ar    1  UNL1        0.1053
     36 N          63.2516   88.0000   16.5737 N.ar    1  UNL1       -0.2350
     37 C          62.4270   87.1840   17.5245 C.ar    1  UNL1        0.1343
     38 S          62.7107   85.7353   17.2585 S.2     1  UNL1       -0.0652
     39 C          62.7436   82.7232   10.8053 C.3     1  UNL1        0.0460
     40 C          62.4472   81.7168   11.8775 C.ar    1  UNL1       -0.0205
     41 C          62.8953   80.2945   11.7156 C.ar    1  UNL1       -0.0042
     42 C          62.5990   79.2882   12.7877 C.ar    1  UNL1       -0.0003
     43 C          61.8546   79.7043   14.0218 C.ar    1  UNL1       -0.0000
     44 C          61.4066   81.1266   14.1837 C.ar    1  UNL1       -0.0003
     45 C          61.7029   82.1328   13.1115 C.ar    1  UNL1       -0.0042
     46 C          60.5916   87.8455   10.9455 C.3     1  UNL1        0.0459
     47 C          60.0605   88.0483    9.5574 C.ar    1  UNL1       -0.0205
     48 C          60.1954   89.3853    8.8907 C.ar    1  UNL1       -0.0042
     49 C          59.6644   89.5881    7.5026 C.ar    1  UNL1       -0.0003
     50 C          58.9983   88.4540    6.7812 C.ar    1  UNL1       -0.0000
     51 C          58.8634   87.1172    7.4480 C.ar    1  UNL1       -0.0003
     52 C          59.3945   86.9143    8.8361 C.ar    1  UNL1       -0.0042
@<TRIPOS>BOND
     1    19    20    1
     2    20    21    1
     3    20    14    1
     4    14    15   ar
     5    15    16   ar
     6    16    13    1
     7    13     7    1
     8     7     8    1
     9     7     9   am
    10     9    10    2
    11     9    11   am
    12    11     6    1
    13     6    22    1
    14    22    23    1
    15     6     2    1
    16     2     3    2
    17     2     4   am
    18     4     1    1
    19     1    25    1
    20    25    26    1
    21    27    26    1
    22    27    39    1
    23    39    40    1
    24    40    41   ar
    25    41    42   ar
    26    42    43   ar
    27    43    44   ar
    28    44    45   ar
    29    27    28    1
    30    28    29   am
    31    29    30    2
    32    29    32    1
    33    32    33    1
    34    33    34    1
    35    34    35   ar
    36    35    36   ar
    37    36    37   ar
    38    37    38   ar
    39     1    46    1
    40    46    47    1
    41    47    48   ar
    42    48    49   ar
    43    49    50   ar
    44    50    51   ar
    45    51    52   ar
    46    16    17   ar
    47    17    18   ar
    48    18    14   ar
    49    45    40   ar
    50    38    34   ar
    51    52    47   ar
    52    11    12    1
    53    23    24    1
    54     4     5    1
    55    28    31    1
