@<TRIPOS>MOLECULE
*****
 39 41 0 0 0
SMALL
GASTEIGER

@<TRIPOS>ATOM
      1 C          62.0917   90.1328   11.8119 C.3     1  UNL1        0.1464
      2 O          60.9974   89.9309   12.8178 O.3     1  UNL1       -0.3813
      3 H          61.2829   90.2732   13.6793 H       1  UNL1        0.2105
      4 C          61.8982   89.6858   10.3933 C.3     1  UNL1        0.1266
      5 N          61.1516   88.4179   10.1017 N.3     1  UNL1       -0.1530
      6 S          61.7755   87.0907   10.4168 S.O2    1  UNL1        0.0634
      7 O          60.9044   86.9696   11.6319 O.2     1  UNL1       -0.1528
      8 O          62.6467   87.2118    9.2017 O.2     1  UNL1       -0.1528
      9 C          62.3995   85.7635   10.7318 C.ar    1  UNL1        0.1223
     10 C          62.4161   85.2590   12.1444 C.ar    1  UNL1        0.0212
     11 C          63.0401   83.9319   12.4595 C.ar    1  UNL1        0.0155
     12 C          63.6473   83.1091   11.3620 C.ar    1  UNL1        0.0416
     13 N          64.2712   81.7819   11.6771 N.pl3   1  UNL1       -0.3570
     14 C          63.6306   83.6136    9.9495 C.ar    1  UNL1        0.0155
     15 C          63.0067   84.9408    9.6344 C.ar    1  UNL1        0.0212
     16 H          64.2822   81.4508   12.6042 H       1  UNL1        0.1424
     17 H          64.6698   81.2419   10.9568 H       1  UNL1        0.1424
     18 C          59.7810   88.4772    9.4950 C.3     1  UNL1        0.0958
     19 C          59.4661   86.6053    7.7212 C.3     1  UNL1        0.0015
     20 C          59.5733   88.0604    8.0691 C.3     1  UNL1        0.0178
     21 C          59.4728   89.0987    6.9912 C.3     1  UNL1        0.0015
     22 C          63.3795   90.7818   12.2248 C.3     1  UNL1        0.1073
     23 N          64.3040   91.3423   11.1850 N.am    1  UNL1       -0.2695
     24 C          65.3394   92.3570   11.5706 C.2     1  UNL1        0.4016
     25 O          65.4503   92.8110   12.9959 O.2     1  UNL1       -0.2264
     26 H          64.2312   91.0443   10.2495 H       1  UNL1        0.1528
     27 O          66.2638   92.9175   10.5308 O.3     1  UNL1       -0.4357
     28 C          66.4201   94.4025   10.3884 C.3     1  UNL1        0.2024
     29 C          66.1100   95.4265   11.4396 C.3     1  UNL1        0.0784
     30 C          66.4122   96.7811   10.8707 C.3     1  UNL1        0.1461
     31 O          66.9092   96.5943    9.4678 O.3     1  UNL1       -0.3498
     32 C          66.9141   95.1242    9.1697 C.3     1  UNL1        0.1856
     33 C          63.7428   90.8702   13.6774 C.3     1  UNL1        0.0485
     34 C          63.7253   89.6371   14.5314 C.ar    1  UNL1       -0.0204
     35 C          64.2555   88.3425   13.9902 C.ar    1  UNL1       -0.0042
     36 C          64.2380   87.1094   14.8441 C.ar    1  UNL1       -0.0003
     37 C          63.6903   87.1710   16.2392 C.ar    1  UNL1       -0.0000
     38 C          63.1601   88.4656   16.7804 C.ar    1  UNL1       -0.0003
     39 C          63.1776   89.6986   15.9265 C.ar    1  UNL1       -0.0042
@<TRIPOS>BOND
     1    19    20    1
     2    20    21    1
     3    20    18    1
     4    18     5    1
     5     5     4    1
     6     4     1    1
     7     1     2    1
     8     1    22    1
     9    22    33    1
    10    33    34    1
    11    34    35   ar
    12    35    36   ar
    13    36    37   ar
    14    37    38   ar
    15    38    39   ar
    16    22    23    1
    17    23    24   am
    18    24    25    2
    19    24    27    1
    20    28    27    1
    21    28    29    1
    22    29    30    1
    23    30    31    1
    24    31    32    1
    25     5     6    1
    26     6     7    2
    27     6     8    2
    28     6     9    1
    29     9    10   ar
    30    10    11   ar
    31    11    12   ar
    32    12    13    1
    33    12    14   ar
    34    14    15   ar
    35    39    34   ar
    36    32    28    1
    37    15     9   ar
    38     2     3    1
    39    23    26    1
    40    13    16    1
    41    13    17    1
@<TRIPOS>MOLECULE
*****
 39 41 0 0 0
SMALL
GASTEIGER

@<TRIPOS>ATOM
      1 C          61.7673   90.1378   11.3234 C.3     1  UNL1        0.1464
      2 O          60.5001   90.8810   11.6264 O.3     1  UNL1       -0.3813
      3 H          60.6020   91.3679   12.4591 H       1  UNL1        0.2105
      4 C          61.8682   89.3022   10.0818 C.3     1  UNL1        0.1266
      5 N          61.1804   87.9708   10.0160 N.3     1  UNL1       -0.1530
      6 S          61.9045   86.7304   10.4486 S.O2    1  UNL1        0.0634
      7 O          62.5602   86.6437    9.1023 O.2     1  UNL1       -0.1528
      8 O          61.2487   86.8172   11.7949 O.2     1  UNL1       -0.1528
      9 C          62.6285   85.4900   10.8812 C.ar    1  UNL1        0.1223
     10 C          63.2258   84.5737    9.8546 C.ar    1  UNL1        0.0212
     11 C          63.9499   83.3333   10.2872 C.ar    1  UNL1        0.0155
     12 C          64.0766   83.0092   11.7464 C.ar    1  UNL1        0.0416
     13 N          64.8007   81.7688   12.1790 N.pl3   1  UNL1       -0.3570
     14 C          63.4793   83.9255   12.7728 C.ar    1  UNL1        0.0155
     15 C          62.7553   85.1659   12.3402 C.ar    1  UNL1        0.0212
     16 H          65.1927   81.1674   11.5053 H       1  UNL1        0.1424
     17 H          64.8839   81.5561   13.1366 H       1  UNL1        0.1424
     18 C          59.7685   87.8798    9.5175 C.3     1  UNL1        0.0958
     19 C          59.3146   88.9050    7.1739 C.3     1  UNL1        0.0015
     20 C          59.5004   87.7034    8.0523 C.3     1  UNL1        0.0178
     21 C          59.4180   86.3254    7.4654 C.3     1  UNL1        0.0015
     22 C          62.9337   90.2302   12.2621 C.3     1  UNL1        0.1073
     23 N          63.5071   88.9849   12.8706 N.am    1  UNL1       -0.2695
     24 C          63.8713   88.9602   14.3256 C.2     1  UNL1        0.4016
     25 O          63.6620   90.1808   15.1719 O.2     1  UNL1       -0.2264
     26 H          63.6445   88.1838   12.3152 H       1  UNL1        0.1528
     27 O          64.4447   87.7149   14.9342 O.3     1  UNL1       -0.4357
     28 C          63.6843   86.9819   15.9993 C.3     1  UNL1        0.2024
     29 C          63.0622   87.5951   17.2188 C.3     1  UNL1        0.0784
     30 C          62.4060   86.4992   18.0052 C.3     1  UNL1        0.1461
     31 O          62.6225   85.2087   17.2717 O.3     1  UNL1       -0.3498
     32 C          63.4125   85.5071   16.0321 C.3     1  UNL1        0.1856
     33 C          63.5267   91.5679   12.5921 C.3     1  UNL1        0.0485
     34 C          64.9381   91.8819   12.1927 C.ar    1  UNL1       -0.0204
     35 C          65.2442   92.2978   10.7845 C.ar    1  UNL1       -0.0042
     36 C          66.6555   92.6118   10.3852 C.ar    1  UNL1       -0.0003
     37 C          67.7608   92.5097   11.3941 C.ar    1  UNL1       -0.0000
     38 C          67.4547   92.0937   12.8024 C.ar    1  UNL1       -0.0003
     39 C          66.0433   91.7798   13.2017 C.ar    1  UNL1       -0.0042
@<TRIPOS>BOND
     1    19    20    1
     2    20    21    1
     3    20    18    1
     4    18     5    1
     5     5     4    1
     6     4     1    1
     7     1     2    1
     8     1    22    1
     9    22    33    1
    10    33    34    1
    11    34    35   ar
    12    35    36   ar
    13    36    37   ar
    14    37    38   ar
    15    38    39   ar
    16    22    23    1
    17    23    24   am
    18    24    25    2
    19    24    27    1
    20    28    27    1
    21    28    29    1
    22    29    30    1
    23    30    31    1
    24    31    32    1
    25     5     6    1
    26     6     7    2
    27     6     8    2
    28     6     9    1
    29     9    10   ar
    30    10    11   ar
    31    11    12   ar
    32    12    13    1
    33    12    14   ar
    34    14    15   ar
    35    39    34   ar
    36    32    28    1
    37    15     9   ar
    38     2     3    1
    39    23    26    1
    40    13    16    1
    41    13    17    1
@<TRIPOS>MOLECULE
*****
 39 41 0 0 0
SMALL
GASTEIGER

@<TRIPOS>ATOM
      1 C          60.8903   89.6718   11.5113 C.3     1  UNL1        0.1464
      2 O          59.9695   90.7973   11.8795 O.3     1  UNL1       -0.3813
      3 H          60.4930   91.5718   12.1384 H       1  UNL1        0.2105
      4 C          60.3252   88.3536   11.0723 C.3     1  UNL1        0.1266
      5 N          61.0711   87.5108   10.0806 N.3     1  UNL1       -0.1530
      6 S          61.8536   86.3193   10.5474 S.O2    1  UNL1        0.0634
      7 O          61.2021   86.4192   11.8948 O.2     1  UNL1       -0.1528
      8 O          62.5052   86.2194    9.1999 O.2     1  UNL1       -0.1528
      9 C          62.6362   85.1278   11.0141 C.ar    1  UNL1        0.1223
     10 C          63.3326   84.2502   10.0165 C.ar    1  UNL1        0.0212
     11 C          64.1152   83.0587   10.4832 C.ar    1  UNL1        0.0155
     12 C          64.2014   82.7447   11.9475 C.ar    1  UNL1        0.0416
     13 N          64.9840   81.5532   12.4143 N.pl3   1  UNL1       -0.3570
     14 C          63.5050   83.6222   12.9450 C.ar    1  UNL1        0.0155
     15 C          62.7224   84.8138   12.4783 C.ar    1  UNL1        0.0212
     16 H          65.4410   80.9772   11.7596 H       1  UNL1        0.1424
     17 H          65.0406   81.3471   13.3753 H       1  UNL1        0.1424
     18 C          61.0344   87.8596    8.6221 C.3     1  UNL1        0.0958
     19 C          58.8264   86.6873    7.9149 C.3     1  UNL1        0.0015
     20 C          59.7253   87.8879    7.8905 C.3     1  UNL1        0.0178
     21 C          59.3150   89.1167    7.1344 C.3     1  UNL1        0.0015
     22 C          62.3762   89.8647   11.5822 C.3     1  UNL1        0.1073
     23 N          63.2257   88.8787   12.3279 N.am    1  UNL1       -0.2695
     24 C          63.2310   88.8768   13.8280 C.2     1  UNL1        0.4016
     25 O          62.3868   89.8608   14.5822 O.2     1  UNL1       -0.2264
     26 H          63.7798   88.2329   11.8329 H       1  UNL1        0.1528
     27 O          64.0805   87.8908   14.5737 O.3     1  UNL1       -0.4357
     28 C          63.5507   87.2293   15.8113 C.3     1  UNL1        0.2024
     29 C          63.0760   87.9287   17.0504 C.3     1  UNL1        0.0784
     30 C          62.6345   86.8840   18.0320 C.3     1  UNL1        0.1461
     31 O          62.8364   85.5389   17.3996 O.3     1  UNL1       -0.3498
     32 C          63.4027   85.7523   16.0271 C.3     1  UNL1        0.1856
     33 C          63.0125   91.0436   10.9074 C.3     1  UNL1        0.0485
     34 C          64.2685   91.6414   11.4689 C.ar    1  UNL1       -0.0204
     35 C          64.5001   91.6449   12.9509 C.ar    1  UNL1       -0.0042
     36 C          65.7560   92.2427   13.5123 C.ar    1  UNL1       -0.0003
     37 C          66.7804   92.8369   12.5917 C.ar    1  UNL1       -0.0000
     38 C          66.5488   92.8335   11.1097 C.ar    1  UNL1       -0.0003
     39 C          65.2929   92.2357   10.5483 C.ar    1  UNL1       -0.0042
@<TRIPOS>BOND
     1    19    20    1
     2    20    21    1
     3    20    18    1
     4    18     5    1
     5     5     4    1
     6     4     1    1
     7     1     2    1
     8     1    22    1
     9    22    33    1
    10    33    34    1
    11    34    35   ar
    12    35    36   ar
    13    36    37   ar
    14    37    38   ar
    15    38    39   ar
    16    22    23    1
    17    23    24   am
    18    24    25    2
    19    24    27    1
    20    28    27    1
    21    28    29    1
    22    29    30    1
    23    30    31    1
    24    31    32    1
    25     5     6    1
    26     6     7    2
    27     6     8    2
    28     6     9    1
    29     9    10   ar
    30    10    11   ar
    31    11    12   ar
    32    12    13    1
    33    12    14   ar
    34    14    15   ar
    35    39    34   ar
    36    32    28    1
    37    15     9   ar
    38     2     3    1
    39    23    26    1
    40    13    16    1
    41    13    17    1
@<TRIPOS>MOLECULE
*****
 39 41 0 0 0
SMALL
GASTEIGER

@<TRIPOS>ATOM
      1 C          62.0809   89.8910   12.3190 C.3     1  UNL1        0.1464
      2 O          60.8237   89.9410   13.1355 O.3     1  UNL1       -0.3813
      3 H          61.0496   90.0781   14.0689 H       1  UNL1        0.2105
      4 C          62.0038   89.6866   10.8350 C.3     1  UNL1        0.1266
      5 N          61.2237   88.5336   10.2763 N.3     1  UNL1       -0.1530
      6 S          61.7824   87.1436   10.3510 S.O2    1  UNL1        0.0634
      7 O          60.8563   86.8325   11.4892 O.2     1  UNL1       -0.1528
      8 O          62.7085   87.4547    9.2128 O.2     1  UNL1       -0.1528
      9 C          62.3412   85.7535   10.4257 C.ar    1  UNL1        0.1223
     10 C          63.0501   85.1656    9.2417 C.ar    1  UNL1        0.0212
     11 C          63.6088   83.7755    9.3164 C.ar    1  UNL1        0.0155
     12 C          63.4586   82.9734   10.5751 C.ar    1  UNL1        0.0416
     13 N          64.0174   81.5834   10.6498 N.pl3   1  UNL1       -0.3570
     14 C          62.7497   83.5614   11.7590 C.ar    1  UNL1        0.0155
     15 C          62.1910   84.9515   11.6843 C.ar    1  UNL1        0.0212
     16 H          64.4827   81.1975    9.8727 H       1  UNL1        0.1424
     17 H          63.9188   81.0570   11.4759 H       1  UNL1        0.1424
     18 C          59.8847   88.7707    9.6429 C.3     1  UNL1        0.0958
     19 C          59.6730   89.2366    7.0958 C.3     1  UNL1        0.0015
     20 C          59.6164   88.2812    8.2507 C.3     1  UNL1        0.0178
     21 C          59.2915   86.8361    8.0134 C.3     1  UNL1        0.0015
     22 C          63.4154   90.0454   12.9864 C.3     1  UNL1        0.1073
     23 N          63.9357   88.9608   13.8825 N.am    1  UNL1       -0.2695
     24 C          63.3303   88.7541   15.2393 C.2     1  UNL1        0.4016
     25 O          62.2045   89.6319   15.6999 O.2     1  UNL1       -0.2264
     26 H          64.6746   88.3847   13.5802 H       1  UNL1        0.1528
     27 O          63.8506   87.6695   16.1354 O.3     1  UNL1       -0.4357
     28 C          63.9531   86.2619   15.6276 C.3     1  UNL1        0.2024
     29 C          65.0586   85.7097   14.7773 C.3     1  UNL1        0.0784
     30 C          64.7569   84.2658   14.5051 C.3     1  UNL1        0.1461
     31 O          63.4650   83.9255   15.1872 O.3     1  UNL1       -0.3498
     32 C          62.9683   85.1592   15.8810 C.3     1  UNL1        0.1856
     33 C          64.2295   91.2843   12.7578 C.3     1  UNL1        0.0485
     34 C          65.3232   91.6507   13.7168 C.ar    1  UNL1       -0.0204
     35 C          66.7447   91.7186   13.2427 C.ar    1  UNL1       -0.0042
     36 C          67.8383   92.0849   14.2017 C.ar    1  UNL1       -0.0003
     37 C          67.5105   92.3834   15.6347 C.ar    1  UNL1       -0.0000
     38 C          66.0890   92.3156   16.1087 C.ar    1  UNL1       -0.0003
     39 C          64.9954   91.9492   15.1497 C.ar    1  UNL1       -0.0042
@<TRIPOS>BOND
     1    19    20    1
     2    20    21    1
     3    20    18    1
     4    18     5    1
     5     5     4    1
     6     4     1    1
     7     1     2    1
     8     1    22    1
     9    22    33    1
    10    33    34    1
    11    34    35   ar
    12    35    36   ar
    13    36    37   ar
    14    37    38   ar
    15    38    39   ar
    16    22    23    1
    17    23    24   am
    18    24    25    2
    19    24    27    1
    20    28    27    1
    21    28    29    1
    22    29    30    1
    23    30    31    1
    24    31    32    1
    25     5     6    1
    26     6     7    2
    27     6     8    2
    28     6     9    1
    29     9    10   ar
    30    10    11   ar
    31    11    12   ar
    32    12    13    1
    33    12    14   ar
    34    14    15   ar
    35    39    34   ar
    36    32    28    1
    37    15     9   ar
    38     2     3    1
    39    23    26    1
    40    13    16    1
    41    13    17    1
@<TRIPOS>MOLECULE
*****
 39 41 0 0 0
SMALL
GASTEIGER

@<TRIPOS>ATOM
      1 C          64.3657   90.4343   14.3999 C.3     1  UNL1        0.1464
      2 O          63.3905   91.4100   14.9890 O.3     1  UNL1       -0.3813
      3 H          62.4855   91.1185   14.7972 H       1  UNL1        0.2105
      4 C          65.8402   90.6594   14.5582 C.3     1  UNL1        0.1266
      5 N          66.4009   92.0477   14.4680 N.3     1  UNL1       -0.1530
      6 S          66.5843   92.6968   13.1282 S.O2    1  UNL1        0.0634
      7 O          65.3464   93.5132   13.3544 O.2     1  UNL1       -0.1528
      8 O          67.8221   91.8804   12.9021 O.2     1  UNL1       -0.1528
      9 C          66.7677   93.3460   11.7885 C.ar    1  UNL1        0.1223
     10 C          66.2423   94.7302   11.5476 C.ar    1  UNL1        0.0212
     11 C          66.4257   95.3794   10.2078 C.ar    1  UNL1        0.0155
     12 C          67.1344   94.6443    9.1090 C.ar    1  UNL1        0.0416
     13 N          67.3178   95.2935    7.7692 N.pl3   1  UNL1       -0.3570
     14 C          67.6598   93.2602    9.3499 C.ar    1  UNL1        0.0155
     15 C          67.4764   92.6110   10.6896 C.ar    1  UNL1        0.0212
     16 H          66.9730   96.2020    7.6111 H       1  UNL1        0.1424
     17 H          67.7830   94.8111    7.0480 H       1  UNL1        0.1424
     18 C          66.7782   92.7869   15.7175 C.3     1  UNL1        0.0958
     19 C          68.8675   94.3204   15.8992 C.3     1  UNL1        0.0015
     20 C          68.2240   92.9762   16.0693 C.3     1  UNL1        0.0178
     21 C          69.0264   91.8212   16.5911 C.3     1  UNL1        0.0015
     22 C          63.8662   89.2335   13.6524 C.3     1  UNL1        0.1073
     23 N          64.1522   87.8552   14.1704 N.am    1  UNL1       -0.2695
     24 C          63.7531   87.4811   15.5672 C.2     1  UNL1        0.4016
     25 O          63.0680   88.4854   16.4458 O.2     1  UNL1       -0.2264
     26 H          64.6019   87.1960   13.5937 H       1  UNL1        0.1528
     27 O          64.0391   86.1028   16.0852 O.3     1  UNL1       -0.4357
     28 C          63.7496   84.9051   15.2299 C.3     1  UNL1        0.2024
     29 C          64.7136   84.2343   14.2968 C.3     1  UNL1        0.0784
     30 C          64.0051   83.0825   13.6477 C.3     1  UNL1        0.1461
     31 O          62.6031   83.0413   14.1797 O.3     1  UNL1       -0.3498
     32 C          62.4453   84.1678   15.1576 C.3     1  UNL1        0.1856
     33 C          63.0808   89.4111   12.3869 C.3     1  UNL1        0.0485
     34 C          62.7024   88.2148   11.5648 C.ar    1  UNL1       -0.0204
     35 C          62.2659   88.3910   10.1407 C.ar    1  UNL1       -0.0042
     36 C          61.8875   87.1947    9.3187 C.ar    1  UNL1       -0.0003
     37 C          61.9455   85.8222    9.9210 C.ar    1  UNL1       -0.0000
     38 C          62.3820   85.6459   11.3452 C.ar    1  UNL1       -0.0003
     39 C          62.7604   86.8422   12.1671 C.ar    1  UNL1       -0.0042
@<TRIPOS>BOND
     1    19    20    1
     2    20    21    1
     3    20    18    1
     4    18     5    1
     5     5     4    1
     6     4     1    1
     7     1     2    1
     8     1    22    1
     9    22    33    1
    10    33    34    1
    11    34    35   ar
    12    35    36   ar
    13    36    37   ar
    14    37    38   ar
    15    38    39   ar
    16    22    23    1
    17    23    24   am
    18    24    25    2
    19    24    27    1
    20    28    27    1
    21    28    29    1
    22    29    30    1
    23    30    31    1
    24    31    32    1
    25     5     6    1
    26     6     7    2
    27     6     8    2
    28     6     9    1
    29     9    10   ar
    30    10    11   ar
    31    11    12   ar
    32    12    13    1
    33    12    14   ar
    34    14    15   ar
    35    39    34   ar
    36    32    28    1
    37    15     9   ar
    38     2     3    1
    39    23    26    1
    40    13    16    1
    41    13    17    1
@<TRIPOS>MOLECULE
*****
 39 41 0 0 0
SMALL
GASTEIGER

@<TRIPOS>ATOM
      1 C          62.5758   89.3143   12.2573 C.3     1  UNL1        0.1464
      2 O          61.2562   89.4740   12.9522 O.3     1  UNL1       -0.3813
      3 H          61.3089   90.2107   13.5810 H       1  UNL1        0.2105
      4 C          62.7567   88.2370   11.2293 C.3     1  UNL1        0.1266
      5 N          61.7959   87.0866   11.1717 N.3     1  UNL1       -0.1530
      6 S          62.1966   85.7469   11.7145 S.O2    1  UNL1        0.0634
      7 O          61.6913   86.1448   13.0696 O.2     1  UNL1       -0.1528
      8 O          62.7018   85.3489   10.3593 O.2     1  UNL1       -0.1528
      9 C          62.5972   84.4071   12.2573 C.ar    1  UNL1        0.1223
     10 C          62.4134   84.1029   13.7146 C.ar    1  UNL1        0.0212
     11 C          62.8141   82.7632   14.2574 C.ar    1  UNL1        0.0155
     12 C          63.3985   81.7277   13.3429 C.ar    1  UNL1        0.0416
     13 N          63.7991   80.3880   13.8857 N.pl3   1  UNL1       -0.3570
     14 C          63.5823   82.0320   11.8856 C.ar    1  UNL1        0.0155
     15 C          63.1816   83.3717   11.3428 C.ar    1  UNL1        0.0212
     16 H          63.6785   80.1883   14.8421 H       1  UNL1        0.1424
     17 H          64.1827   79.7084   13.2855 H       1  UNL1        0.1424
     18 C          60.4344   87.2758   10.5712 C.3     1  UNL1        0.0958
     19 C          60.0542   87.1498    8.0042 C.3     1  UNL1        0.0015
     20 C          60.2884   87.9603    9.2445 C.3     1  UNL1        0.0178
     21 C          60.3765   89.4552    9.1580 C.3     1  UNL1        0.0015
     22 C          63.7147   90.2320   12.5903 C.3     1  UNL1        0.1073
     23 N          64.1056   91.3198   11.6342 N.am    1  UNL1       -0.2695
     24 C          64.9337   92.4759   12.1115 C.2     1  UNL1        0.4016
     25 O          65.3707   92.5443   13.5448 O.2     1  UNL1       -0.2264
     26 H          63.8188   91.2749   10.6935 H       1  UNL1        0.1528
     27 O          65.3245   93.5637   11.1555 O.3     1  UNL1       -0.4357
     28 C          66.6446   93.5000   10.4460 C.3     1  UNL1        0.2024
     29 C          67.4739   92.2679   10.2356 C.3     1  UNL1        0.0784
     30 C          68.7089   92.6636    9.4819 C.3     1  UNL1        0.1461
     31 O          68.6429   94.1402    9.2264 O.3     1  UNL1       -0.3498
     32 C          67.3671   94.6571    9.8222 C.3     1  UNL1        0.1856
     33 C          64.4627   90.0620   13.8793 C.3     1  UNL1        0.0485
     34 C          64.0760   88.9700   14.8324 C.ar    1  UNL1       -0.0204
     35 C          64.4920   87.5548   14.5601 C.ar    1  UNL1       -0.0042
     36 C          64.1054   86.4629   15.5131 C.ar    1  UNL1       -0.0003
     37 C          63.3028   86.7862   16.7384 C.ar    1  UNL1       -0.0000
     38 C          62.8869   88.2014   17.0107 C.ar    1  UNL1       -0.0003
     39 C          63.2735   89.2933   16.0577 C.ar    1  UNL1       -0.0042
@<TRIPOS>BOND
     1    19    20    1
     2    20    21    1
     3    20    18    1
     4    18     5    1
     5     5     4    1
     6     4     1    1
     7     1     2    1
     8     1    22    1
     9    22    33    1
    10    33    34    1
    11    34    35   ar
    12    35    36   ar
    13    36    37   ar
    14    37    38   ar
    15    38    39   ar
    16    22    23    1
    17    23    24   am
    18    24    25    2
    19    24    27    1
    20    28    27    1
    21    28    29    1
    22    29    30    1
    23    30    31    1
    24    31    32    1
    25     5     6    1
    26     6     7    2
    27     6     8    2
    28     6     9    1
    29     9    10   ar
    30    10    11   ar
    31    11    12   ar
    32    12    13    1
    33    12    14   ar
    34    14    15   ar
    35    39    34   ar
    36    32    28    1
    37    15     9   ar
    38     2     3    1
    39    23    26    1
    40    13    16    1
    41    13    17    1
@<TRIPOS>MOLECULE
*****
 39 41 0 0 0
SMALL
GASTEIGER

@<TRIPOS>ATOM
      1 C          62.0730   85.9125   10.8697 C.3     1  UNL1        0.1464
      2 O          62.6894   86.0287    9.5072 O.3     1  UNL1       -0.3813
      3 H          63.4163   85.3916    9.4257 H       1  UNL1        0.2105
      4 C          60.9210   86.7949   11.2495 C.3     1  UNL1        0.1266
      5 N          60.8237   88.1833   10.6904 N.3     1  UNL1       -0.1530
      6 S          61.8710   89.2028   11.0276 S.O2    1  UNL1        0.0634
      7 O          61.2370   89.4095   12.3713 O.2     1  UNL1       -0.1528
      8 O          62.5049   88.9961    9.6840 O.2     1  UNL1       -0.1528
      9 C          62.9182   90.2224   11.3649 C.ar    1  UNL1        0.1223
     10 C          63.4268   91.1540   10.3049 C.ar    1  UNL1        0.0212
     11 C          64.4741   92.1735   10.6421 C.ar    1  UNL1        0.0155
     12 C          65.0128   92.2614   12.0394 C.ar    1  UNL1        0.0416
     13 N          66.0601   93.2810   12.3766 N.pl3   1  UNL1       -0.3570
     14 C          64.5042   91.3298   13.0992 C.ar    1  UNL1        0.0155
     15 C          63.4569   90.3103   12.7620 C.ar    1  UNL1        0.0212
     16 H          66.3939   93.8924   11.6809 H       1  UNL1        0.1424
     17 H          66.4137   93.3387   13.2936 H       1  UNL1        0.1424
     18 C          59.6790   88.5523    9.7939 C.3     1  UNL1        0.0958
     19 C          59.6563   89.0549    7.2451 C.3     1  UNL1        0.0015
     20 C          59.6516   88.0679    8.3745 C.3     1  UNL1        0.0178
     21 C          59.6195   86.5965    8.0846 C.3     1  UNL1        0.0015
     22 C          62.6087   84.9138   11.8525 C.3     1  UNL1        0.1073
     23 N          62.6125   85.2319   13.3184 N.am    1  UNL1       -0.2695
     24 C          63.8498   84.9977   14.1335 C.2     1  UNL1        0.4016
     25 O          65.0832   84.4454   13.4827 O.2     1  UNL1       -0.2264
     26 H          61.8029   85.5944   13.7455 H       1  UNL1        0.1528
     27 O          63.8536   85.3157   15.5993 O.3     1  UNL1       -0.4357
     28 C          63.6161   86.7226   16.0621 C.3     1  UNL1        0.2024
     29 C          63.9897   87.9704   15.3182 C.3     1  UNL1        0.0784
     30 C          63.5678   89.1477   16.1464 C.3     1  UNL1        0.1461
     31 O          62.9334   88.6276   17.4022 O.3     1  UNL1       -0.3498
     32 C          62.9633   87.1288   17.3501 C.3     1  UNL1        0.1856
     33 C          63.1406   83.5971   11.3694 C.3     1  UNL1        0.0485
     34 C          62.7597   82.3297   12.0755 C.ar    1  UNL1       -0.0204
     35 C          63.0237   81.0023   11.4288 C.ar    1  UNL1       -0.0042
     36 C          62.6428   79.7350   12.1350 C.ar    1  UNL1       -0.0003
     37 C          61.9978   79.7950   13.4879 C.ar    1  UNL1       -0.0000
     38 C          61.7338   81.1224   14.1346 C.ar    1  UNL1       -0.0003
     39 C          62.1147   82.3897   13.4285 C.ar    1  UNL1       -0.0042
@<TRIPOS>BOND
     1    19    20    1
     2    20    21    1
     3    20    18    1
     4    18     5    1
     5     5     4    1
     6     4     1    1
     7     1     2    1
     8     1    22    1
     9    22    33    1
    10    33    34    1
    11    34    35   ar
    12    35    36   ar
    13    36    37   ar
    14    37    38   ar
    15    38    39   ar
    16    22    23    1
    17    23    24   am
    18    24    25    2
    19    24    27    1
    20    28    27    1
    21    28    29    1
    22    29    30    1
    23    30    31    1
    24    31    32    1
    25     5     6    1
    26     6     7    2
    27     6     8    2
    28     6     9    1
    29     9    10   ar
    30    10    11   ar
    31    11    12   ar
    32    12    13    1
    33    12    14   ar
    34    14    15   ar
    35    39    34   ar
    36    32    28    1
    37    15     9   ar
    38     2     3    1
    39    23    26    1
    40    13    16    1
    41    13    17    1
@<TRIPOS>MOLECULE
*****
 39 41 0 0 0
SMALL
GASTEIGER

@<TRIPOS>ATOM
      1 C          63.4455   87.6611   13.0475 C.3     1  UNL1        0.1464
      2 O          62.8658   86.5706   12.1961 O.3     1  UNL1       -0.3813
      3 H          62.3633   86.9635   11.4653 H       1  UNL1        0.2105
      4 C          64.2715   87.3143   14.2505 C.3     1  UNL1        0.1266
      5 N          63.9793   86.0640   15.0259 N.3     1  UNL1       -0.1530
      6 S          63.7156   84.7770   14.3020 S.O2    1  UNL1        0.0634
      7 O          65.1870   84.6103   14.0624 O.2     1  UNL1       -0.1528
      8 O          62.2443   84.9436   14.5417 O.2     1  UNL1       -0.1528
      9 C          63.4520   83.4899   13.5781 C.ar    1  UNL1        0.1223
     10 C          63.9051   83.3217   12.1581 C.ar    1  UNL1        0.0212
     11 C          63.6414   82.0347   11.4342 C.ar    1  UNL1        0.0155
     12 C          62.9247   80.9158   12.1304 C.ar    1  UNL1        0.0416
     13 N          62.6610   79.6288   11.4065 N.pl3   1  UNL1       -0.3570
     14 C          62.4716   81.0841   13.5504 C.ar    1  UNL1        0.0155
     15 C          62.7353   82.3711   14.2742 C.ar    1  UNL1        0.0212
     16 H          62.9584   79.5184   10.4745 H       1  UNL1        0.1424
     17 H          62.1906   78.8945   11.8634 H       1  UNL1        0.1424
     18 C          63.9507   86.1007   16.5252 C.3     1  UNL1        0.0958
     19 C          62.4717   86.8386   18.5297 C.3     1  UNL1        0.0015
     20 C          63.1577   87.1580   17.2346 C.3     1  UNL1        0.0178
     21 C          63.0506   88.5347   16.6488 C.3     1  UNL1        0.0015
     22 C          63.1991   89.0983   12.6958 C.3     1  UNL1        0.1073
     23 N          62.6565   89.4573   11.3442 N.am    1  UNL1       -0.2695
     24 C          61.1761   89.5874   11.1406 C.2     1  UNL1        0.4016
     25 O          60.2382   89.3586   12.2887 O.2     1  UNL1       -0.2264
     26 H          63.2721   89.6075   10.5907 H       1  UNL1        0.1528
     27 O          60.6335   89.9464    9.7890 O.3     1  UNL1       -0.4357
     28 C          60.0828   88.8765    8.8936 C.3     1  UNL1        0.2024
     29 C          59.9877   87.4157    9.2207 C.3     1  UNL1        0.0784
     30 C          59.3766   86.7158    8.0431 C.3     1  UNL1        0.1461
     31 O          59.0939   87.7441    6.9882 O.3     1  UNL1       -0.3498
     32 C          59.5304   89.0795    7.5139 C.3     1  UNL1        0.1856
     33 C          63.4952   90.1765   13.6956 C.3     1  UNL1        0.0485
     34 C          64.7340   91.0106   13.5545 C.ar    1  UNL1       -0.0204
     35 C          65.8276   90.9081   14.5760 C.ar    1  UNL1       -0.0042
     36 C          67.0662   91.7422   14.4348 C.ar    1  UNL1       -0.0003
     37 C          67.2113   92.6787   13.2721 C.ar    1  UNL1       -0.0000
     38 C          66.1177   92.7813   12.2507 C.ar    1  UNL1       -0.0003
     39 C          64.8790   91.9472   12.3918 C.ar    1  UNL1       -0.0042
@<TRIPOS>BOND
     1    19    20    1
     2    20    21    1
     3    20    18    1
     4    18     5    1
     5     5     4    1
     6     4     1    1
     7     1     2    1
     8     1    22    1
     9    22    33    1
    10    33    34    1
    11    34    35   ar
    12    35    36   ar
    13    36    37   ar
    14    37    38   ar
    15    38    39   ar
    16    22    23    1
    17    23    24   am
    18    24    25    2
    19    24    27    1
    20    28    27    1
    21    28    29    1
    22    29    30    1
    23    30    31    1
    24    31    32    1
    25     5     6    1
    26     6     7    2
    27     6     8    2
    28     6     9    1
    29     9    10   ar
    30    10    11   ar
    31    11    12   ar
    32    12    13    1
    33    12    14   ar
    34    14    15   ar
    35    39    34   ar
    36    32    28    1
    37    15     9   ar
    38     2     3    1
    39    23    26    1
    40    13    16    1
    41    13    17    1
@<TRIPOS>MOLECULE
*****
 39 41 0 0 0
SMALL
GASTEIGER

@<TRIPOS>ATOM
      1 C          64.5035   90.7098   15.1573 C.3     1  UNL1        0.1464
      2 O          63.8167   91.6523   16.1007 O.3     1  UNL1       -0.3813
      3 H          62.8997   91.3656   16.2336 H       1  UNL1        0.2105
      4 C          65.9392   90.9343   14.7856 C.3     1  UNL1        0.1266
      5 N          66.4646   92.3309   14.6323 N.3     1  UNL1       -0.1530
      6 S          66.5101   92.9705   13.2763 S.O2    1  UNL1        0.0634
      7 O          66.9552   91.6692   12.6775 O.2     1  UNL1       -0.1528
      8 O          66.0651   94.2718   13.8751 O.2     1  UNL1       -0.1528
      9 C          66.5557   93.6101   11.9203 C.ar    1  UNL1        0.1223
     10 C          67.0775   92.8387   10.7443 C.ar    1  UNL1        0.0212
     11 C          67.1230   93.4783    9.3883 C.ar    1  UNL1        0.0155
     12 C          66.6467   94.8893    9.2082 C.ar    1  UNL1        0.0416
     13 N          66.6923   95.5289    7.8522 N.pl3   1  UNL1       -0.3570
     14 C          66.1250   95.6606   10.3841 C.ar    1  UNL1        0.0155
     15 C          66.0795   95.0210   11.7401 C.ar    1  UNL1        0.0212
     16 H          67.0347   95.0227    7.0804 H       1  UNL1        0.1424
     17 H          66.3797   96.4550    7.7340 H       1  UNL1        0.1424
     18 C          66.9445   93.0879   15.8351 C.3     1  UNL1        0.0958
     19 C          69.1600   91.9202   16.5262 C.3     1  UNL1        0.0015
     20 C          68.4115   93.1611   16.1391 C.3     1  UNL1        0.0178
     21 C          69.1301   94.4752   16.0559 C.3     1  UNL1        0.0015
     22 C          63.7544   89.5426   14.5856 C.3     1  UNL1        0.1073
     23 N          64.2860   88.1511   14.7621 N.am    1  UNL1       -0.2695
     24 C          63.7558   87.2796   15.8619 C.2     1  UNL1        0.4016
     25 O          62.6940   87.7996   16.7851 O.2     1  UNL1       -0.2264
     26 H          64.9829   87.8098   14.1562 H       1  UNL1        0.1528
     27 O          64.2873   85.8881   16.0384 O.3     1  UNL1       -0.4357
     28 C          63.7531   84.7685   15.1952 C.3     1  UNL1        0.2024
     29 C          64.4130   84.1879   13.9798 C.3     1  UNL1        0.0784
     30 C          63.5329   83.0935   13.4527 C.3     1  UNL1        0.1461
     31 O          62.3290   82.9979   14.3423 O.3     1  UNL1       -0.3498
     32 C          62.4651   84.0331   15.4192 C.3     1  UNL1        0.1856
     33 C          62.4739   89.7670   13.8374 C.3     1  UNL1        0.0485
     34 C          62.5088   90.1222   12.3804 C.ar    1  UNL1       -0.0204
     35 C          61.5197   89.5079   11.4348 C.ar    1  UNL1       -0.0042
     36 C          61.5547   89.8631    9.9779 C.ar    1  UNL1       -0.0003
     37 C          62.5788   90.8326    9.4667 C.ar    1  UNL1       -0.0000
     38 C          63.5679   91.4468   10.4123 C.ar    1  UNL1       -0.0003
     39 C          63.5330   91.0916   11.8692 C.ar    1  UNL1       -0.0042
@<TRIPOS>BOND
     1    19    20    1
     2    20    21    1
     3    20    18    1
     4    18     5    1
     5     5     4    1
     6     4     1    1
     7     1     2    1
     8     1    22    1
     9    22    33    1
    10    33    34    1
    11    34    35   ar
    12    35    36   ar
    13    36    37   ar
    14    37    38   ar
    15    38    39   ar
    16    22    23    1
    17    23    24   am
    18    24    25    2
    19    24    27    1
    20    28    27    1
    21    28    29    1
    22    29    30    1
    23    30    31    1
    24    31    32    1
    25     5     6    1
    26     6     7    2
    27     6     8    2
    28     6     9    1
    29     9    10   ar
    30    10    11   ar
    31    11    12   ar
    32    12    13    1
    33    12    14   ar
    34    14    15   ar
    35    39    34   ar
    36    32    28    1
    37    15     9   ar
    38     2     3    1
    39    23    26    1
    40    13    16    1
    41    13    17    1
