@<TRIPOS>MOLECULE
*****
 32 36 0 0 0
SMALL
GASTEIGER

@<TRIPOS>ATOM
      1 C          63.5766   85.7771   15.6451 C.ar    1  UNL1        0.1834
      2 N          63.1314   85.4438   17.0382 N.ar    1  UNL1       -0.1298
      3 N          62.8868   86.7316   17.7673 N.ar    1  UNL1       -0.1272
      4 C          63.1809   87.8609   16.8248 C.ar    1  UNL1        0.1864
      5 C          63.1156   89.3501   16.9914 C.ar    1  UNL1        0.0422
      6 C          63.4765   90.2496   15.8464 C.ar    1  UNL1        0.0241
      7 C          63.9028   89.6596   14.5349 C.ar    1  UNL1        0.1016
      8 N          63.9682   88.1703   14.3683 N.ar    1  UNL1       -0.1626
      9 N          63.6072   87.2710   15.5132 N.ar    1  UNL1       -0.1935
     10 C          64.2638   90.5589   13.3899 C.ar    1  UNL1        0.0238
     11 C          65.4060   91.5219   13.5239 C.ar    1  UNL1        0.0313
     12 C          65.7669   92.4213   12.3789 C.ar    1  UNL1        0.1424
     13 F          66.9091   93.3843   12.5129 F       1  UNL1       -0.2041
     14 C          64.9858   92.3575   11.1000 C.ar    1  UNL1        0.0592
     15 C          63.8436   91.3944   10.9660 C.ar    1  UNL1        0.1424
     16 F          63.0624   91.3306    9.6871 F       1  UNL1       -0.2041
     17 C          63.4826   90.4951   12.1110 C.ar    1  UNL1        0.0313
     18 C          63.9293   84.7898   14.5722 C.3     1  UNL1        0.1560
     19 N          62.8635   84.2641   13.6570 N.pl3   1  UNL1       -0.3252
     20 H          62.0051   83.9554   14.0273 H       1  UNL1        0.1473
     21 C          61.0849   87.1669    9.4546 C.ar    1  UNL1        0.1593
     22 C          60.8428   87.2224   10.9339 C.ar    1  UNL1        0.1357
     23 N          61.5164   86.2363   11.8416 N.ar    1  UNL1       -0.2379
     24 C          62.4320   85.1947   11.2701 C.ar    1  UNL1        0.1122
     25 C          63.1055   84.2086   12.1778 C.ar    1  UNL1        0.0659
     26 C          64.0212   83.1670   11.6062 C.ar    1  UNL1        0.0365
     27 C          64.2633   83.1115   10.1269 C.ar    1  UNL1        0.1002
     28 N          63.5897   84.0976    9.2192 N.ar    1  UNL1       -0.2421
     29 C          62.6740   85.1392    9.7908 C.ar    1  UNL1        0.1032
     30 C          62.0005   86.1253    8.8831 C.ar    1  UNL1        0.0592
     31 C          59.2451   87.7239    7.7068 C.3     1  UNL1        0.2525
     32 O          60.4113   88.1530    8.5469 O.3     1  UNL1       -0.4698
@<TRIPOS>BOND
     1    31    32    1
     2    32    21    1
     3    21    22   ar
     4    22    23   ar
     5    23    24   ar
     6    24    25   ar
     7    25    19    1
     8    19    18    1
     9    18     1    1
    10     1     2   ar
    11     2     3   ar
    12     3     4   ar
    13     4     5   ar
    14     5     6   ar
    15     6     7   ar
    16     7    10    1
    17    10    11   ar
    18    11    12   ar
    19    12    13    1
    20    12    14   ar
    21    14    15   ar
    22    15    16    1
    23    15    17   ar
    24     7     8   ar
    25     8     9   ar
    26    25    26   ar
    27    26    27   ar
    28    27    28   ar
    29    28    29   ar
    30    29    30   ar
    31    30    21   ar
    32    29    24   ar
    33     9     1   ar
    34     9     4   ar
    35    17    10   ar
    36    19    20    1
@<TRIPOS>MOLECULE
*****
 32 36 0 0 0
SMALL
GASTEIGER

@<TRIPOS>ATOM
      1 C          62.4680   89.6580   11.9571 C.ar    1  UNL1        0.1834
      2 N          61.9344   90.5312   10.8603 N.ar    1  UNL1       -0.1298
      3 N          61.5118   89.6449    9.7264 N.ar    1  UNL1       -0.1272
      4 C          61.7842   88.2240   10.1223 C.ar    1  UNL1        0.1864
      5 C          61.5705   86.9238    9.4055 C.ar    1  UNL1        0.0422
      6 C          61.9477   85.6316   10.0674 C.ar    1  UNL1        0.0241
      7 C          62.5386   85.6397   11.4461 C.ar    1  UNL1        0.1016
      8 N          62.7523   86.9400   12.1628 N.ar    1  UNL1       -0.1626
      9 N          62.3751   88.2321   11.5009 N.ar    1  UNL1       -0.1935
     10 C          62.9158   84.3476   12.1080 C.ar    1  UNL1        0.0238
     11 C          62.7051   83.0476   11.3900 C.ar    1  UNL1        0.0313
     12 C          63.0824   81.7555   12.0520 C.ar    1  UNL1        0.1424
     13 F          62.8717   80.4555   11.3339 F       1  UNL1       -0.2041
     14 C          63.6703   81.7634   13.4319 C.ar    1  UNL1        0.0592
     15 C          63.8810   83.0634   14.1499 C.ar    1  UNL1        0.1424
     16 F          64.4690   83.0714   15.5299 F       1  UNL1       -0.2041
     17 C          63.5038   84.3555   13.4880 C.ar    1  UNL1        0.0313
     18 C          63.0008   90.1282   13.2781 C.3     1  UNL1        0.1560
     19 N          64.4735   90.0682   13.5570 N.pl3   1  UNL1       -0.3252
     20 H          64.9436   89.2035   13.5358 H       1  UNL1        0.1473
     21 C          66.0079   94.3450   10.6236 C.ar    1  UNL1        0.1593
     22 C          65.2517   93.0876   10.3123 C.ar    1  UNL1        0.1357
     23 N          64.9923   92.0811   11.3939 N.ar    1  UNL1       -0.2379
     24 C          65.4891   92.3321   12.7868 C.ar    1  UNL1        0.1122
     25 C          65.2297   91.3257   13.8683 C.ar    1  UNL1        0.0659
     26 C          65.7265   91.5766   15.2612 C.ar    1  UNL1        0.0365
     27 C          66.4828   92.8341   15.5726 C.ar    1  UNL1        0.1002
     28 N          66.7422   93.8406   14.4910 N.ar    1  UNL1       -0.2421
     29 C          66.2453   93.5895   13.0981 C.ar    1  UNL1        0.1032
     30 C          66.5047   94.5960   12.0165 C.ar    1  UNL1        0.0592
     31 C          67.5514   95.3065    8.7681 C.3     1  UNL1        0.2525
     32 O          66.2673   95.3514    9.5421 O.3     1  UNL1       -0.4698
@<TRIPOS>BOND
     1    31    32    1
     2    32    21    1
     3    21    22   ar
     4    22    23   ar
     5    23    24   ar
     6    24    25   ar
     7    25    19    1
     8    19    18    1
     9    18     1    1
    10     1     2   ar
    11     2     3   ar
    12     3     4   ar
    13     4     5   ar
    14     5     6   ar
    15     6     7   ar
    16     7    10    1
    17    10    11   ar
    18    11    12   ar
    19    12    13    1
    20    12    14   ar
    21    14    15   ar
    22    15    16    1
    23    15    17   ar
    24     7     8   ar
    25     8     9   ar
    26    25    26   ar
    27    26    27   ar
    28    27    28   ar
    29    28    29   ar
    30    29    30   ar
    31    30    21   ar
    32    29    24   ar
    33     9     1   ar
    34     9     4   ar
    35    17    10   ar
    36    19    20    1
@<TRIPOS>MOLECULE
*****
 32 36 0 0 0
SMALL
GASTEIGER

@<TRIPOS>ATOM
      1 C          62.4775   89.6562   11.9673 C.ar    1  UNL1        0.1834
      2 N          61.9495   90.5327   10.8705 N.ar    1  UNL1       -0.1298
      3 N          61.5292   89.6495    9.7332 N.ar    1  UNL1       -0.1272
      4 C          61.7974   88.2272   10.1272 C.ar    1  UNL1        0.1864
      5 C          61.5837   86.9289    9.4070 C.ar    1  UNL1        0.0422
      6 C          61.9561   85.6347   10.0676 C.ar    1  UNL1        0.0241
      7 C          62.5422   85.6388   11.4483 C.ar    1  UNL1        0.1016
      8 N          62.7559   86.9372   12.1685 N.ar    1  UNL1       -0.1626
      9 N          62.3835   88.2314   11.5079 N.ar    1  UNL1       -0.1935
     10 C          62.9146   84.3446   12.1089 C.ar    1  UNL1        0.0238
     11 C          63.4994   84.3487   13.4902 C.ar    1  UNL1        0.0313
     12 C          63.8718   83.0544   14.1507 C.ar    1  UNL1        0.1424
     13 F          64.4567   83.0585   15.5320 F       1  UNL1       -0.2041
     14 C          63.6593   81.7563   13.4301 C.ar    1  UNL1        0.0592
     15 C          63.0745   81.7522   12.0488 C.ar    1  UNL1        0.1424
     16 F          62.8620   80.4539   11.3280 F       1  UNL1       -0.2041
     17 C          62.7021   83.0464   11.3882 C.ar    1  UNL1        0.0313
     18 C          63.0066   90.1227   13.2912 C.3     1  UNL1        0.1560
     19 N          64.4794   90.0702   13.5708 N.pl3   1  UNL1       -0.3252
     20 H          64.9540   89.2079   13.5497 H       1  UNL1        0.1473
     21 C          65.9963   94.3534   10.6377 C.ar    1  UNL1        0.1593
     22 C          65.2466   93.0921   10.3259 C.ar    1  UNL1        0.1357
     23 N          64.9909   92.0848   11.4076 N.ar    1  UNL1       -0.2379
     24 C          65.4848   92.3387   12.8009 C.ar    1  UNL1        0.1122
     25 C          65.2290   91.3314   13.8826 C.ar    1  UNL1        0.0659
     26 C          65.7229   91.5853   15.2759 C.ar    1  UNL1        0.0365
     27 C          66.4726   92.8467   15.5878 C.ar    1  UNL1        0.1002
     28 N          66.7283   93.8540   14.5061 N.ar    1  UNL1       -0.2421
     29 C          66.2344   93.6000   13.1127 C.ar    1  UNL1        0.1032
     30 C          66.4901   94.6073   12.0311 C.ar    1  UNL1        0.0592
     31 C          67.5270   95.3073    8.7677 C.3     1  UNL1        0.2525
     32 O          66.2520   95.3607    9.5561 O.3     1  UNL1       -0.4698
@<TRIPOS>BOND
     1    31    32    1
     2    32    21    1
     3    21    22   ar
     4    22    23   ar
     5    23    24   ar
     6    24    25   ar
     7    25    19    1
     8    19    18    1
     9    18     1    1
    10     1     2   ar
    11     2     3   ar
    12     3     4   ar
    13     4     5   ar
    14     5     6   ar
    15     6     7   ar
    16     7    10    1
    17    10    11   ar
    18    11    12   ar
    19    12    13    1
    20    12    14   ar
    21    14    15   ar
    22    15    16    1
    23    15    17   ar
    24     7     8   ar
    25     8     9   ar
    26    25    26   ar
    27    26    27   ar
    28    27    28   ar
    29    28    29   ar
    30    29    30   ar
    31    30    21   ar
    32    29    24   ar
    33     9     1   ar
    34     9     4   ar
    35    17    10   ar
    36    19    20    1
@<TRIPOS>MOLECULE
*****
 32 36 0 0 0
SMALL
GASTEIGER

@<TRIPOS>ATOM
      1 C          64.1805   87.0759   14.6793 C.ar    1  UNL1        0.1834
      2 N          64.5965   86.2577   15.8657 N.ar    1  UNL1       -0.1298
      3 N          64.3125   84.8174   15.5580 N.ar    1  UNL1       -0.1272
      4 C          63.7210   84.7453   14.1813 C.ar    1  UNL1        0.1864
      5 C          63.2462   83.5891   13.3522 C.ar    1  UNL1        0.0422
      6 C          62.6897   83.8287   11.9799 C.ar    1  UNL1        0.0241
      7 C          62.6081   85.2246   11.4369 C.ar    1  UNL1        0.1016
      8 N          63.0830   86.3808   12.2661 N.ar    1  UNL1       -0.1626
      9 N          63.6394   86.1412   13.6383 N.ar    1  UNL1       -0.1935
     10 C          62.0517   85.4642   10.0647 C.ar    1  UNL1        0.0238
     11 C          62.7568   84.9102    8.8623 C.ar    1  UNL1        0.0313
     12 C          62.2003   85.1499    7.4900 C.ar    1  UNL1        0.1424
     13 F          62.9054   84.5960    6.2875 F       1  UNL1       -0.2041
     14 C          60.9388   85.9434    7.3203 C.ar    1  UNL1        0.0592
     15 C          60.2337   86.4973    8.5228 C.ar    1  UNL1        0.1424
     16 F          58.9721   87.2909    8.3531 F       1  UNL1       -0.2041
     17 C          60.7902   86.2577    9.8950 C.ar    1  UNL1        0.0313
     18 C          64.2869   88.5671   14.5556 C.3     1  UNL1        0.1560
     19 N          63.1140   89.3647   14.0676 N.pl3   1  UNL1       -0.3252
     20 H          62.3224   89.4778   14.6419 H       1  UNL1        0.1473
     21 C          65.9563   93.4035   11.8631 C.ar    1  UNL1        0.1593
     22 C          65.9231   92.7781   13.2260 C.ar    1  UNL1        0.1357
     23 N          64.9867   91.6403   13.5066 N.ar    1  UNL1       -0.2379
     24 C          64.0836   91.1279   12.4241 C.ar    1  UNL1        0.1122
     25 C          63.1473   89.9901   12.7046 C.ar    1  UNL1        0.0659
     26 C          62.2441   89.4777   11.6222 C.ar    1  UNL1        0.0365
     27 C          62.2773   90.1031   10.2591 C.ar    1  UNL1        0.1002
     28 N          63.2136   91.2409    9.9786 N.ar    1  UNL1       -0.2421
     29 C          64.1168   91.7533   11.0611 C.ar    1  UNL1        0.1032
     30 C          65.0531   92.8911   10.7806 C.ar    1  UNL1        0.0592
     31 C          66.4633   95.6613   10.6819 C.3     1  UNL1        0.2525
     32 O          66.8926   94.5413   11.5826 O.3     1  UNL1       -0.4698
@<TRIPOS>BOND
     1    31    32    1
     2    32    21    1
     3    21    22   ar
     4    22    23   ar
     5    23    24   ar
     6    24    25   ar
     7    25    19    1
     8    19    18    1
     9    18     1    1
    10     1     2   ar
    11     2     3   ar
    12     3     4   ar
    13     4     5   ar
    14     5     6   ar
    15     6     7   ar
    16     7    10    1
    17    10    11   ar
    18    11    12   ar
    19    12    13    1
    20    12    14   ar
    21    14    15   ar
    22    15    16    1
    23    15    17   ar
    24     7     8   ar
    25     8     9   ar
    26    25    26   ar
    27    26    27   ar
    28    27    28   ar
    29    28    29   ar
    30    29    30   ar
    31    30    21   ar
    32    29    24   ar
    33     9     1   ar
    34     9     4   ar
    35    17    10   ar
    36    19    20    1
@<TRIPOS>MOLECULE
*****
 32 36 0 0 0
SMALL
GASTEIGER

@<TRIPOS>ATOM
      1 C          62.1738   89.2262   11.4456 C.ar    1  UNL1        0.1834
      2 N          61.6080   89.9646   10.2690 N.ar    1  UNL1       -0.1298
      3 N          61.2184   88.9541    9.2312 N.ar    1  UNL1       -0.1272
      4 C          61.5435   87.5910    9.7664 C.ar    1  UNL1        0.1864
      5 C          61.3782   86.2185    9.1844 C.ar    1  UNL1        0.0422
      6 C          61.8033   85.0141    9.9709 C.ar    1  UNL1        0.0241
      7 C          62.3938   85.1822   11.3395 C.ar    1  UNL1        0.1016
      8 N          62.5591   86.5548   11.9215 N.ar    1  UNL1       -0.1626
      9 N          62.1340   87.7592   11.1350 N.ar    1  UNL1       -0.1935
     10 C          62.8189   83.9779   12.1261 C.ar    1  UNL1        0.0238
     11 C          63.4553   84.1485   13.4736 C.ar    1  UNL1        0.0313
     12 C          63.8804   82.9440   14.2602 C.ar    1  UNL1        0.1424
     13 F          64.5169   83.1146   15.6077 F       1  UNL1       -0.2041
     14 C          63.6691   81.5691   13.6992 C.ar    1  UNL1        0.0592
     15 C          63.0327   81.3984   12.3517 C.ar    1  UNL1        0.1424
     16 F          62.8213   80.0234   11.7907 F       1  UNL1       -0.2041
     17 C          62.6076   82.6028   11.5652 C.ar    1  UNL1        0.0313
     18 C          62.6891   89.8458   12.7108 C.3     1  UNL1        0.1560
     19 N          62.9924   91.3141   12.7573 N.pl3   1  UNL1       -0.3252
     20 H          62.3064   91.9489   13.0665 H       1  UNL1        0.1473
     21 C          67.4542   92.7963   15.4304 C.ar    1  UNL1        0.1593
     22 C          66.1057   92.2953   15.8549 C.ar    1  UNL1        0.1357
     23 N          65.0679   91.9682   14.8224 N.ar    1  UNL1       -0.2379
     24 C          65.3788   92.1422   13.3653 C.ar    1  UNL1        0.1122
     25 C          64.3410   91.8151   12.3328 C.ar    1  UNL1        0.0659
     26 C          64.6519   91.9891   10.8757 C.ar    1  UNL1        0.0365
     27 C          66.0005   92.4901   10.4511 C.ar    1  UNL1        0.1002
     28 N          67.0382   92.8172   11.4837 N.ar    1  UNL1       -0.2421
     29 C          66.7273   92.6432   12.9408 C.ar    1  UNL1        0.1032
     30 C          67.7651   92.9702   13.9733 C.ar    1  UNL1        0.0592
     31 C          69.5796   94.1070   16.1478 C.3     1  UNL1        0.2525
     32 O          68.4920   93.1233   16.4629 O.3     1  UNL1       -0.4698
@<TRIPOS>BOND
     1    31    32    1
     2    32    21    1
     3    21    22   ar
     4    22    23   ar
     5    23    24   ar
     6    24    25   ar
     7    25    19    1
     8    19    18    1
     9    18     1    1
    10     1     2   ar
    11     2     3   ar
    12     3     4   ar
    13     4     5   ar
    14     5     6   ar
    15     6     7   ar
    16     7    10    1
    17    10    11   ar
    18    11    12   ar
    19    12    13    1
    20    12    14   ar
    21    14    15   ar
    22    15    16    1
    23    15    17   ar
    24     7     8   ar
    25     8     9   ar
    26    25    26   ar
    27    26    27   ar
    28    27    28   ar
    29    28    29   ar
    30    29    30   ar
    31    30    21   ar
    32    29    24   ar
    33     9     1   ar
    34     9     4   ar
    35    17    10   ar
    36    19    20    1
@<TRIPOS>MOLECULE
*****
 32 36 0 0 0
SMALL
GASTEIGER

@<TRIPOS>ATOM
      1 C          64.2948   87.4931   14.5753 C.ar    1  UNL1        0.1834
      2 N          65.0167   86.4825   15.4165 N.ar    1  UNL1       -0.1298
      3 N          64.8183   85.1331   14.7920 N.ar    1  UNL1       -0.1272
      4 C          63.9739   85.3098   13.5649 C.ar    1  UNL1        0.1864
      5 C          63.4578   84.3310   12.5523 C.ar    1  UNL1        0.0422
      6 C          62.6181   84.8107   11.4056 C.ar    1  UNL1        0.0241
      7 C          62.2945   86.2692   11.2717 C.ar    1  UNL1        0.1016
      8 N          62.8106   87.2480   12.2844 N.ar    1  UNL1       -0.1626
      9 N          63.6503   86.7683   13.4310 N.ar    1  UNL1       -0.1935
     10 C          61.4549   86.7490   10.1250 C.ar    1  UNL1        0.0238
     11 C          61.0213   88.1835   10.0616 C.ar    1  UNL1        0.0313
     12 C          60.1816   88.6632    8.9149 C.ar    1  UNL1        0.1424
     13 F          59.7481   90.0978    8.8515 F       1  UNL1       -0.2041
     14 C          59.7755   87.7084    7.8318 C.ar    1  UNL1        0.0592
     15 C          60.2090   86.2739    7.8952 C.ar    1  UNL1        0.1424
     16 F          59.8030   85.3190    6.8120 F       1  UNL1       -0.2041
     17 C          61.0487   85.7941    9.0418 C.ar    1  UNL1        0.0313
     18 C          64.2289   88.9693   14.8331 C.3     1  UNL1        0.1560
     19 N          64.4707   89.9377   13.7135 N.pl3   1  UNL1       -0.3252
     20 H          64.1374   89.7376   12.8090 H       1  UNL1        0.1473
     21 C          65.8660   94.1589   10.6337 C.ar    1  UNL1        0.1593
     22 C          65.1165   92.8856   10.3753 C.ar    1  UNL1        0.1357
     23 N          64.9012   91.9030   11.4880 N.ar    1  UNL1       -0.2379
     24 C          65.4355   92.1937   12.8591 C.ar    1  UNL1        0.1122
     25 C          65.2203   91.2110   13.9718 C.ar    1  UNL1        0.0659
     26 C          65.7546   91.5017   15.3429 C.ar    1  UNL1        0.0365
     27 C          66.5042   92.7751   15.6014 C.ar    1  UNL1        0.1002
     28 N          66.7195   93.7577   14.4887 N.ar    1  UNL1       -0.2421
     29 C          66.1851   93.4669   13.1175 C.ar    1  UNL1        0.1032
     30 C          66.4004   94.4496   12.0048 C.ar    1  UNL1        0.0592
     31 C          67.2204   94.9527    8.5635 C.3     1  UNL1        0.2525
     32 O          66.0813   95.1415    9.5210 O.3     1  UNL1       -0.4698
@<TRIPOS>BOND
     1    31    32    1
     2    32    21    1
     3    21    22   ar
     4    22    23   ar
     5    23    24   ar
     6    24    25   ar
     7    25    19    1
     8    19    18    1
     9    18     1    1
    10     1     2   ar
    11     2     3   ar
    12     3     4   ar
    13     4     5   ar
    14     5     6   ar
    15     6     7   ar
    16     7    10    1
    17    10    11   ar
    18    11    12   ar
    19    12    13    1
    20    12    14   ar
    21    14    15   ar
    22    15    16    1
    23    15    17   ar
    24     7     8   ar
    25     8     9   ar
    26    25    26   ar
    27    26    27   ar
    28    27    28   ar
    29    28    29   ar
    30    29    30   ar
    31    30    21   ar
    32    29    24   ar
    33     9     1   ar
    34     9     4   ar
    35    17    10   ar
    36    19    20    1
@<TRIPOS>MOLECULE
*****
 32 36 0 0 0
SMALL
GASTEIGER

@<TRIPOS>ATOM
      1 C          64.2818   86.8508   14.6107 C.ar    1  UNL1        0.1834
      2 N          64.9892   85.7778   15.3839 N.ar    1  UNL1       -0.1298
      3 N          64.7846   84.4771   14.6654 N.ar    1  UNL1       -0.1272
      4 C          63.9507   84.7463   13.4479 C.ar    1  UNL1        0.1864
      5 C          63.4342   83.8451   12.3658 C.ar    1  UNL1        0.0422
      6 C          62.6068   84.4109   11.2498 C.ar    1  UNL1        0.0241
      7 C          62.2961   85.8780   11.2160 C.ar    1  UNL1        0.1016
      8 N          62.8126   86.7792   12.2982 N.ar    1  UNL1       -0.1626
      9 N          63.6399   86.2133   13.4141 N.ar    1  UNL1       -0.1935
     10 C          61.4687   86.4439   10.1001 C.ar    1  UNL1        0.0238
     11 C          61.0927   85.5801    8.9328 C.ar    1  UNL1        0.0313
     12 C          60.2654   86.1461    7.8168 C.ar    1  UNL1        0.1424
     13 F          59.8894   85.2823    6.6495 F       1  UNL1       -0.2041
     14 C          59.8141   87.5756    7.8682 C.ar    1  UNL1        0.0592
     15 C          60.1901   88.4393    9.0355 C.ar    1  UNL1        0.1424
     16 F          59.7389   89.8689    9.0869 F       1  UNL1       -0.2041
     17 C          61.0174   87.8734   10.1514 C.ar    1  UNL1        0.0313
     18 C          64.2259   88.3060   14.9706 C.3     1  UNL1        0.1560
     19 N          63.2858   89.2225   14.2452 N.pl3   1  UNL1       -0.3252
     20 H          62.3184   89.1752   14.4213 H       1  UNL1        0.1473
     21 C          67.4248   92.7036   14.2718 C.ar    1  UNL1        0.1593
     22 C          66.8909   91.7150   15.2656 C.ar    1  UNL1        0.1357
     23 N          65.6892   90.8842   14.9254 N.ar    1  UNL1       -0.2379
     24 C          65.0215   91.0419   13.5916 C.ar    1  UNL1        0.1122
     25 C          63.8198   90.2111   13.2514 C.ar    1  UNL1        0.0659
     26 C          63.1521   90.3688   11.9176 C.ar    1  UNL1        0.0365
     27 C          63.6861   91.3574   10.9238 C.ar    1  UNL1        0.1002
     28 N          64.8877   92.1883   11.2639 N.ar    1  UNL1       -0.2421
     29 C          65.5554   92.0305   12.5978 C.ar    1  UNL1        0.1032
     30 C          66.7571   92.8613   12.9380 C.ar    1  UNL1        0.0592
     31 C          68.8244   94.0281   16.0145 C.3     1  UNL1        0.2525
     32 O          68.6265   93.5344   14.6120 O.3     1  UNL1       -0.4698
@<TRIPOS>BOND
     1    31    32    1
     2    32    21    1
     3    21    22   ar
     4    22    23   ar
     5    23    24   ar
     6    24    25   ar
     7    25    19    1
     8    19    18    1
     9    18     1    1
    10     1     2   ar
    11     2     3   ar
    12     3     4   ar
    13     4     5   ar
    14     5     6   ar
    15     6     7   ar
    16     7    10    1
    17    10    11   ar
    18    11    12   ar
    19    12    13    1
    20    12    14   ar
    21    14    15   ar
    22    15    16    1
    23    15    17   ar
    24     7     8   ar
    25     8     9   ar
    26    25    26   ar
    27    26    27   ar
    28    27    28   ar
    29    28    29   ar
    30    29    30   ar
    31    30    21   ar
    32    29    24   ar
    33     9     1   ar
    34     9     4   ar
    35    17    10   ar
    36    19    20    1
@<TRIPOS>MOLECULE
*****
 32 36 0 0 0
SMALL
GASTEIGER

@<TRIPOS>ATOM
      1 C          60.8434   88.4430   11.1233 C.ar    1  UNL1        0.1834
      2 N          61.1414   87.0661   11.6386 N.ar    1  UNL1       -0.1298
      3 N          60.9050   86.0923   10.5224 N.ar    1  UNL1       -0.1272
      4 C          60.4610   86.8673    9.3173 C.ar    1  UNL1        0.1864
      5 C          60.0864   86.4378    7.9299 C.ar    1  UNL1        0.0422
      6 C          59.6737   87.4611    6.9136 C.ar    1  UNL1        0.0241
      7 C          59.6357   88.9139    7.2850 C.ar    1  UNL1        0.1016
      8 N          60.0103   89.3434    8.6725 N.ar    1  UNL1       -0.1626
      9 N          60.4229   88.3201    9.6887 N.ar    1  UNL1       -0.1935
     10 C          59.2230   89.9372    6.2689 C.ar    1  UNL1        0.0238
     11 C          60.2624   90.6363    5.4438 C.ar    1  UNL1        0.0313
     12 C          59.8497   91.6597    4.4276 C.ar    1  UNL1        0.1424
     13 F          60.8891   92.3589    3.6025 F       1  UNL1       -0.2041
     14 C          58.3977   91.9838    4.2366 C.ar    1  UNL1        0.0592
     15 C          57.3583   91.2846    5.0616 C.ar    1  UNL1        0.1424
     16 F          55.9062   91.6087    4.8707 F       1  UNL1       -0.2041
     17 C          57.7710   90.2613    6.0778 C.ar    1  UNL1        0.0313
     18 C          60.9476   89.7188   11.9053 C.3     1  UNL1        0.1560
     19 N          62.1505   89.9761   12.7638 N.pl3   1  UNL1       -0.3252
     20 H          62.2126   89.5701   13.6585 H       1  UNL1        0.1473
     21 C          66.2370   92.5996   15.1444 C.ar    1  UNL1        0.1593
     22 C          65.1289   91.7236   15.6491 C.ar    1  UNL1        0.1357
     23 N          64.1361   91.1411   14.6873 N.ar    1  UNL1       -0.2379
     24 C          64.2514   91.4346   13.2209 C.ar    1  UNL1        0.1122
     25 C          63.2586   90.8521   12.2591 C.ar    1  UNL1        0.0659
     26 C          63.3739   91.1455   10.7927 C.ar    1  UNL1        0.0365
     27 C          64.4820   92.0215   10.2879 C.ar    1  UNL1        0.1002
     28 N          65.4749   92.6040   11.2497 N.ar    1  UNL1       -0.2421
     29 C          65.3595   92.3105   12.7162 C.ar    1  UNL1        0.1032
     30 C          66.3523   92.8930   13.6780 C.ar    1  UNL1        0.0592
     31 C          68.6938   93.1561   15.7804 C.3     1  UNL1        0.2525
     32 O          67.2299   93.1821   16.1062 O.3     1  UNL1       -0.4698
@<TRIPOS>BOND
     1    31    32    1
     2    32    21    1
     3    21    22   ar
     4    22    23   ar
     5    23    24   ar
     6    24    25   ar
     7    25    19    1
     8    19    18    1
     9    18     1    1
    10     1     2   ar
    11     2     3   ar
    12     3     4   ar
    13     4     5   ar
    14     5     6   ar
    15     6     7   ar
    16     7    10    1
    17    10    11   ar
    18    11    12   ar
    19    12    13    1
    20    12    14   ar
    21    14    15   ar
    22    15    16    1
    23    15    17   ar
    24     7     8   ar
    25     8     9   ar
    26    25    26   ar
    27    26    27   ar
    28    27    28   ar
    29    28    29   ar
    30    29    30   ar
    31    30    21   ar
    32    29    24   ar
    33     9     1   ar
    34     9     4   ar
    35    17    10   ar
    36    19    20    1
@<TRIPOS>MOLECULE
*****
 32 36 0 0 0
SMALL
GASTEIGER

@<TRIPOS>ATOM
      1 C          61.4124   85.9780    8.7599 C.ar    1  UNL1        0.1834
      2 N          60.2121   85.8973    7.8640 N.ar    1  UNL1       -0.1298
      3 N          59.5202   87.2278    7.8951 N.ar    1  UNL1       -0.1272
      4 C          60.2930   88.1309    8.8102 C.ar    1  UNL1        0.1864
      5 C          60.0828   89.5567    9.2258 C.ar    1  UNL1        0.0422
      6 C          61.0422   90.2101   10.1760 C.ar    1  UNL1        0.0241
      7 C          62.2116   89.4377   10.7105 C.ar    1  UNL1        0.1016
      8 N          62.4217   88.0118   10.2948 N.ar    1  UNL1       -0.1626
      9 N          61.4624   87.3584    9.3447 N.ar    1  UNL1       -0.1935
     10 C          63.1709   90.0911   11.6606 C.ar    1  UNL1        0.0238
     11 C          63.4493   89.4642   12.9946 C.ar    1  UNL1        0.0313
     12 C          64.4087   90.1177   13.9447 C.ar    1  UNL1        0.1424
     13 F          64.6872   89.4908   15.2787 F       1  UNL1       -0.2041
     14 C          65.0895   91.3979   13.5609 C.ar    1  UNL1        0.0592
     15 C          64.8110   92.0248   12.2269 C.ar    1  UNL1        0.1424
     16 F          65.4918   93.3051   11.8431 F       1  UNL1       -0.2041
     17 C          63.8517   91.3714   11.2768 C.ar    1  UNL1        0.0313
     18 C          62.3910   84.8723    9.0247 C.3     1  UNL1        0.1560
     19 N          63.3082   84.9502   10.2091 N.pl3   1  UNL1       -0.3252
     20 H          63.9653   85.6803   10.2757 H       1  UNL1        0.1473
     21 C          63.5287   85.1477   15.6093 C.ar    1  UNL1        0.1593
     22 C          63.6127   86.1822   14.5264 C.ar    1  UNL1        0.1357
     23 N          63.5112   85.7716   13.0873 N.ar    1  UNL1       -0.2379
     24 C          63.3257   84.3264   12.7310 C.ar    1  UNL1        0.1122
     25 C          63.2242   83.9157   11.2919 C.ar    1  UNL1        0.0659
     26 C          63.0388   82.4705   10.9357 C.ar    1  UNL1        0.0365
     27 C          62.9549   81.4358   12.0186 C.ar    1  UNL1        0.1002
     28 N          63.0564   81.8465   13.4577 N.ar    1  UNL1       -0.2421
     29 C          63.2418   83.2918   13.8139 C.ar    1  UNL1        0.1032
     30 C          63.3433   83.7025   15.2530 C.ar    1  UNL1        0.0592
     31 C          62.6565   86.5478   17.6164 C.3     1  UNL1        0.2525
     32 O          63.6302   85.5584   17.0484 O.3     1  UNL1       -0.4698
@<TRIPOS>BOND
     1    31    32    1
     2    32    21    1
     3    21    22   ar
     4    22    23   ar
     5    23    24   ar
     6    24    25   ar
     7    25    19    1
     8    19    18    1
     9    18     1    1
    10     1     2   ar
    11     2     3   ar
    12     3     4   ar
    13     4     5   ar
    14     5     6   ar
    15     6     7   ar
    16     7    10    1
    17    10    11   ar
    18    11    12   ar
    19    12    13    1
    20    12    14   ar
    21    14    15   ar
    22    15    16    1
    23    15    17   ar
    24     7     8   ar
    25     8     9   ar
    26    25    26   ar
    27    26    27   ar
    28    27    28   ar
    29    28    29   ar
    30    29    30   ar
    31    30    21   ar
    32    29    24   ar
    33     9     1   ar
    34     9     4   ar
    35    17    10   ar
    36    19    20    1
