@<TRIPOS>MOLECULE
*****
 38 43 0 0 0
SMALL
GASTEIGER

@<TRIPOS>ATOM
      1 N          58.8179   89.3079    6.9847 N.pl3   1  UNL1       -0.2825
      2 H          57.9610   88.8292    6.9082 H       1  UNL1        0.1551
      3 C          60.1164   92.1309    3.7298 C.ar    1  UNL1        0.0847
      4 C          61.1288   91.2662    4.4206 C.ar    1  UNL1        0.0205
      5 C          60.6960   90.3252    5.5055 C.ar    1  UNL1        0.0162
      6 C          59.2507   90.2489    5.8997 C.ar    1  UNL1        0.0506
      7 C          58.2383   91.1135    5.2089 C.ar    1  UNL1        0.0162
      8 C          58.6711   92.0546    4.1239 C.ar    1  UNL1        0.0205
      9 C          61.5784   93.9595    0.6339 C.ar    1  UNL1        0.1851
     10 N          60.8519   95.0804    1.3164 N.ar    1  UNL1       -0.2031
     11 C          60.2158   94.5319    2.5591 C.ar    1  UNL1        0.2015
     12 N          60.5491   93.0719    2.6448 N.ar    1  UNL1       -0.2080
     13 N          61.3913   92.7181    1.4550 N.ar    1  UNL1       -0.1441
     14 C          64.6870   94.3690   -4.4816 C.3     1  UNL1        0.0521
     15 C          63.9099   94.2666   -3.2027 C.ar    1  UNL1        0.0594
     16 C          62.6172   93.5064   -3.1694 C.ar    1  UNL1        0.0148
     17 C          61.8401   93.4040   -1.8905 C.ar    1  UNL1        0.0059
     18 C          62.3556   94.0619   -0.6450 C.ar    1  UNL1        0.0567
     19 C          63.6482   94.8220   -0.6783 C.ar    1  UNL1        0.1015
     20 N          64.4254   94.9244   -1.9571 N.ar    1  UNL1       -0.2480
     21 C          59.6906   89.0962    8.1862 C.ar    1  UNL1        0.2207
     22 N          59.8160   90.1744    9.2214 N.ar    1  UNL1       -0.2120
     23 C          60.6887   89.9628   10.4229 C.ar    1  UNL1        0.1034
     24 C          61.4361   88.6729   10.5891 C.ar    1  UNL1        0.0399
     25 C          61.3108   87.5947    9.5539 C.ar    1  UNL1        0.0858
     26 N          60.4380   87.8063    8.3524 N.ar    1  UNL1       -0.2135
     27 C          62.0581   86.3049    9.7201 C.ar    1  UNL1        0.0190
     28 C          62.7891   85.7062    8.5551 C.ar    1  UNL1        0.0016
     29 C          63.5366   84.4163    8.7213 C.ar    1  UNL1        0.0013
     30 C          63.5529   83.7250   10.0524 C.ar    1  UNL1        0.0145
     31 C          62.8218   84.3237   11.2174 C.ar    1  UNL1        0.0480
     32 C          62.0744   85.6136   11.0512 C.ar    1  UNL1        0.0160
     33 N          62.8381   83.6324   12.5485 N.pl3   1  UNL1       -0.3028
     34 C          63.2171   84.3936   13.7842 C.3     1  UNL1        0.1231
     35 C          63.2334   83.7023   15.1153 C.3     1  UNL1        0.1636
     36 O          62.8708   82.2499   15.2107 O.3     1  UNL1       -0.3501
     37 C          62.4918   81.4888   13.9750 C.3     1  UNL1        0.1636
     38 C          62.4755   82.1800   12.6439 C.3     1  UNL1        0.1231
@<TRIPOS>BOND
     1    14    15    1
     2    15    16   ar
     3    16    17   ar
     4    17    18   ar
     5    18     9    1
     6     9    10   ar
     7    10    11   ar
     8    11    12   ar
     9    12     3    1
    10     3     4   ar
    11     4     5   ar
    12     5     6   ar
    13     6     1    1
    14     1    21    1
    15    21    22   ar
    16    22    23   ar
    17    23    24   ar
    18    24    25   ar
    19    25    27    1
    20    27    28   ar
    21    28    29   ar
    22    29    30   ar
    23    30    31   ar
    24    31    33    1
    25    33    34    1
    26    34    35    1
    27    35    36    1
    28    36    37    1
    29    37    38    1
    30    31    32   ar
    31    25    26   ar
    32     6     7   ar
    33     7     8   ar
    34    12    13   ar
    35    18    19   ar
    36    19    20   ar
    37    20    15   ar
    38    13     9   ar
    39     8     3   ar
    40    26    21   ar
    41    32    27   ar
    42    38    33    1
    43     1     2    1
@<TRIPOS>MOLECULE
*****
 38 43 0 0 0
SMALL
GASTEIGER

@<TRIPOS>ATOM
      1 N          63.3792   84.1135   11.7476 N.pl3   1  UNL1       -0.2825
      2 H          63.7359   83.2602   11.4101 H       1  UNL1        0.1551
      3 C          60.9711   86.7759    9.0343 C.ar    1  UNL1        0.0847
      4 C          60.7666   86.8365   10.5191 C.ar    1  UNL1        0.0205
      5 C          61.5693   85.9490   11.4234 C.ar    1  UNL1        0.0162
      6 C          62.5765   85.0010   10.8431 C.ar    1  UNL1        0.0506
      7 C          62.7809   84.9404    9.3584 C.ar    1  UNL1        0.0162
      8 C          61.9783   85.8279    8.4540 C.ar    1  UNL1        0.0205
      9 C          59.5626   89.3701    6.5140 C.ar    1  UNL1        0.1851
     10 N          58.3039   88.6882    6.9619 N.ar    1  UNL1       -0.2031
     11 C          58.6783   87.6334    7.9606 C.ar    1  UNL1        0.2015
     12 N          60.1684   87.6634    8.1298 N.ar    1  UNL1       -0.2080
     13 N          60.7149   88.7367    7.2358 N.ar    1  UNL1       -0.1441
     14 C          59.9245   93.8453    2.5339 C.3     1  UNL1        0.0521
     15 C          59.8340   92.7265    3.5289 C.ar    1  UNL1        0.0594
     16 C          61.0630   91.9497    3.8978 C.ar    1  UNL1        0.0148
     17 C          60.9725   90.8309    4.8928 C.ar    1  UNL1        0.0059
     18 C          59.6530   90.4889    5.5190 C.ar    1  UNL1        0.0567
     19 C          58.4241   91.2657    5.1500 C.ar    1  UNL1        0.1015
     20 N          58.5146   92.3845    4.1550 N.ar    1  UNL1       -0.2480
     21 C          63.6384   84.5261   13.1663 C.ar    1  UNL1        0.2207
     22 N          63.9022   83.4853   14.2138 N.ar    1  UNL1       -0.2120
     23 C          64.1614   83.8979   15.6324 C.ar    1  UNL1        0.1034
     24 C          64.1569   85.3513   16.0036 C.ar    1  UNL1        0.0399
     25 C          63.8932   86.3920   14.9561 C.ar    1  UNL1        0.0858
     26 N          63.6339   85.9794   13.5374 N.ar    1  UNL1       -0.2135
     27 C          63.8886   87.8453   15.3272 C.ar    1  UNL1        0.0190
     28 C          63.1587   88.3036   16.5548 C.ar    1  UNL1        0.0016
     29 C          63.1542   89.7570   16.9260 C.ar    1  UNL1        0.0013
     30 C          63.8796   90.7521   16.0694 C.ar    1  UNL1        0.0145
     31 C          64.6095   90.2938   14.8418 C.ar    1  UNL1        0.0480
     32 C          64.6140   88.8404   14.4706 C.ar    1  UNL1        0.0160
     33 N          65.3349   91.2888   13.9852 N.pl3   1  UNL1       -0.3028
     34 C          64.7070   91.7851   12.7166 C.3     1  UNL1        0.1231
     35 C          65.4323   92.7801   11.8601 C.3     1  UNL1        0.1636
     36 O          66.7857   93.2789   12.2722 O.3     1  UNL1       -0.3501
     37 C          67.4136   92.7827   13.5408 C.3     1  UNL1        0.1636
     38 C          66.6882   91.7876   14.3973 C.3     1  UNL1        0.1231
@<TRIPOS>BOND
     1    14    15    1
     2    15    16   ar
     3    16    17   ar
     4    17    18   ar
     5    18     9    1
     6     9    10   ar
     7    10    11   ar
     8    11    12   ar
     9    12     3    1
    10     3     4   ar
    11     4     5   ar
    12     5     6   ar
    13     6     1    1
    14     1    21    1
    15    21    22   ar
    16    22    23   ar
    17    23    24   ar
    18    24    25   ar
    19    25    27    1
    20    27    28   ar
    21    28    29   ar
    22    29    30   ar
    23    30    31   ar
    24    31    33    1
    25    33    34    1
    26    34    35    1
    27    35    36    1
    28    36    37    1
    29    37    38    1
    30    31    32   ar
    31    25    26   ar
    32     6     7   ar
    33     7     8   ar
    34    12    13   ar
    35    18    19   ar
    36    19    20   ar
    37    20    15   ar
    38    13     9   ar
    39     8     3   ar
    40    26    21   ar
    41    32    27   ar
    42    38    33    1
    43     1     2    1
@<TRIPOS>MOLECULE
*****
 38 43 0 0 0
SMALL
GASTEIGER

@<TRIPOS>ATOM
      1 N          58.4527   89.3572    7.0941 N.pl3   1  UNL1       -0.2825
      2 H          57.5521   89.4803    7.4725 H       1  UNL1        0.1551
      3 C          59.9345   92.1207    3.8666 C.ar    1  UNL1        0.0847
      4 C          58.4743   92.0803    4.2072 C.ar    1  UNL1        0.0205
      5 C          57.9803   91.1591    5.2830 C.ar    1  UNL1        0.0162
      6 C          58.9466   90.2784    6.0182 C.ar    1  UNL1        0.0506
      7 C          60.4068   90.3188    5.6777 C.ar    1  UNL1        0.0162
      8 C          60.9008   91.2400    4.6018 C.ar    1  UNL1        0.0205
      9 C          61.5112   93.8790    0.7863 C.ar    1  UNL1        0.1851
     10 N          60.8663   95.0397    1.4841 N.ar    1  UNL1       -0.2031
     11 C          60.1972   94.5224    2.7229 C.ar    1  UNL1        0.2015
     12 N          60.4285   93.0419    2.7908 N.ar    1  UNL1       -0.2080
     13 N          61.2406   92.6443    1.5939 N.ar    1  UNL1       -0.1441
     14 C          64.6261   94.1307   -4.3356 C.3     1  UNL1        0.0521
     15 C          63.8473   94.0678   -3.0551 C.ar    1  UNL1        0.0594
     16 C          62.4677   93.4793   -3.0445 C.ar    1  UNL1        0.0148
     17 C          61.6890   93.4163   -1.7640 C.ar    1  UNL1        0.0059
     18 C          62.2899   93.9419   -0.4942 C.ar    1  UNL1        0.0567
     19 C          63.6696   94.5304   -0.5048 C.ar    1  UNL1        0.1015
     20 N          64.4483   94.5934   -1.7853 N.ar    1  UNL1       -0.2480
     21 C          59.3308   88.2483    7.5936 C.ar    1  UNL1        0.2207
     22 N          59.3661   86.9354    6.8691 N.ar    1  UNL1       -0.2120
     23 C          60.2442   85.8266    7.3685 C.ar    1  UNL1        0.1034
     24 C          61.0871   86.0307    8.5924 C.ar    1  UNL1        0.0399
     25 C          61.0518   87.3436    9.3169 C.ar    1  UNL1        0.0858
     26 N          60.1736   88.4525    8.8175 N.ar    1  UNL1       -0.2135
     27 C          61.8945   87.5478   10.5407 C.ar    1  UNL1        0.0190
     28 C          62.3833   88.9212   10.8942 C.ar    1  UNL1        0.0016
     29 C          63.2261   89.1254   12.1182 C.ar    1  UNL1        0.0013
     30 C          63.5802   87.9563   12.9886 C.ar    1  UNL1        0.0145
     31 C          63.0914   86.5828   12.6352 C.ar    1  UNL1        0.0480
     32 C          62.2486   86.3786   11.4112 C.ar    1  UNL1        0.0160
     33 N          63.4455   85.4137   13.5056 N.pl3   1  UNL1       -0.3028
     34 C          62.7455   84.1003   13.3186 C.3     1  UNL1        0.1231
     35 C          63.0995   82.9312   14.1891 C.3     1  UNL1        0.1636
     36 O          64.1536   83.0754   15.2465 O.3     1  UNL1       -0.3501
     37 C          64.8536   84.3888   15.4335 C.3     1  UNL1        0.1636
     38 C          64.4996   85.5579   14.5631 C.3     1  UNL1        0.1231
@<TRIPOS>BOND
     1    14    15    1
     2    15    16   ar
     3    16    17   ar
     4    17    18   ar
     5    18     9    1
     6     9    10   ar
     7    10    11   ar
     8    11    12   ar
     9    12     3    1
    10     3     4   ar
    11     4     5   ar
    12     5     6   ar
    13     6     1    1
    14     1    21    1
    15    21    22   ar
    16    22    23   ar
    17    23    24   ar
    18    24    25   ar
    19    25    27    1
    20    27    28   ar
    21    28    29   ar
    22    29    30   ar
    23    30    31   ar
    24    31    33    1
    25    33    34    1
    26    34    35    1
    27    35    36    1
    28    36    37    1
    29    37    38    1
    30    31    32   ar
    31    25    26   ar
    32     6     7   ar
    33     7     8   ar
    34    12    13   ar
    35    18    19   ar
    36    19    20   ar
    37    20    15   ar
    38    13     9   ar
    39     8     3   ar
    40    26    21   ar
    41    32    27   ar
    42    38    33    1
    43     1     2    1
@<TRIPOS>MOLECULE
*****
 38 43 0 0 0
SMALL
GASTEIGER

@<TRIPOS>ATOM
      1 N          58.8020   89.0664    6.7812 N.pl3   1  UNL1       -0.2825
      2 H          58.0616   88.4313    6.6481 H       1  UNL1        0.1551
      3 C          59.5165   92.3488    3.7869 C.ar    1  UNL1        0.0847
      4 C          60.6669   91.5264    4.2871 C.ar    1  UNL1        0.0205
      5 C          60.4288   90.4324    5.2852 C.ar    1  UNL1        0.0162
      6 C          59.0402   90.1606    5.7831 C.ar    1  UNL1        0.0506
      7 C          57.8898   90.9829    5.2830 C.ar    1  UNL1        0.0162
      8 C          58.1279   92.0770    4.2849 C.ar    1  UNL1        0.0205
      9 C          59.8857   94.6752    0.7020 C.ar    1  UNL1        0.1851
     10 N          60.3562   95.5779    1.8037 N.ar    1  UNL1       -0.2031
     11 C          60.2752   94.8163    3.0935 C.ar    1  UNL1        0.2015
     12 N          59.7546   93.4429    2.7888 N.ar    1  UNL1       -0.2080
     13 N          59.5139   93.3557    1.3108 N.ar    1  UNL1       -0.1441
     14 C          59.5500   96.0935   -5.1183 C.3     1  UNL1        0.0521
     15 C          59.6339   95.7389   -3.6632 C.ar    1  UNL1        0.0594
     16 C          59.9059   96.8067   -2.6456 C.ar    1  UNL1        0.0148
     17 C          59.9899   96.4522   -1.1905 C.ar    1  UNL1        0.0059
     18 C          59.8018   95.0298   -0.7531 C.ar    1  UNL1        0.0567
     19 C          59.5298   93.9619   -1.7708 C.ar    1  UNL1        0.1015
     20 N          59.4458   94.3165   -3.2258 N.ar    1  UNL1       -0.2480
     21 C          59.6919   88.9400    7.9821 C.ar    1  UNL1        0.2207
     22 N          59.8453   90.0950    8.9268 N.ar    1  UNL1       -0.2120
     23 C          60.7353   89.9686   10.1277 C.ar    1  UNL1        0.1034
     24 C          61.4718   88.6872   10.3839 C.ar    1  UNL1        0.0399
     25 C          61.3183   87.5322    9.4392 C.ar    1  UNL1        0.0858
     26 N          60.4284   87.6586    8.2383 N.ar    1  UNL1       -0.2135
     27 C          62.0548   86.2509    9.6953 C.ar    1  UNL1        0.0190
     28 C          62.8109   85.5854    8.5838 C.ar    1  UNL1        0.0016
     29 C          63.5474   84.3039    8.8399 C.ar    1  UNL1        0.0013
     30 C          63.5278   83.6880   10.2074 C.ar    1  UNL1        0.0145
     31 C          62.7716   84.3535   11.3189 C.ar    1  UNL1        0.0480
     32 C          62.0351   85.6349   11.0628 C.ar    1  UNL1        0.0160
     33 N          62.7520   83.7375   12.6865 N.pl3   1  UNL1       -0.3028
     34 C          63.1310   84.5576   13.8839 C.3     1  UNL1        0.1231
     35 C          63.1114   83.9416   15.2514 C.3     1  UNL1        0.1636
     36 O          62.7127   82.5056   15.4216 O.3     1  UNL1       -0.3501
     37 C          62.3336   81.6856   14.2242 C.3     1  UNL1        0.1636
     38 C          62.3533   82.3015   12.8566 C.3     1  UNL1        0.1231
@<TRIPOS>BOND
     1    14    15    1
     2    15    16   ar
     3    16    17   ar
     4    17    18   ar
     5    18     9    1
     6     9    10   ar
     7    10    11   ar
     8    11    12   ar
     9    12     3    1
    10     3     4   ar
    11     4     5   ar
    12     5     6   ar
    13     6     1    1
    14     1    21    1
    15    21    22   ar
    16    22    23   ar
    17    23    24   ar
    18    24    25   ar
    19    25    27    1
    20    27    28   ar
    21    28    29   ar
    22    29    30   ar
    23    30    31   ar
    24    31    33    1
    25    33    34    1
    26    34    35    1
    27    35    36    1
    28    36    37    1
    29    37    38    1
    30    31    32   ar
    31    25    26   ar
    32     6     7   ar
    33     7     8   ar
    34    12    13   ar
    35    18    19   ar
    36    19    20   ar
    37    20    15   ar
    38    13     9   ar
    39     8     3   ar
    40    26    21   ar
    41    32    27   ar
    42    38    33    1
    43     1     2    1
@<TRIPOS>MOLECULE
*****
 38 43 0 0 0
SMALL
GASTEIGER

@<TRIPOS>ATOM
      1 N          58.9264   89.5418    7.2468 N.pl3   1  UNL1       -0.2825
      2 H          57.9785   89.3915    7.4659 H       1  UNL1        0.1551
      3 C          60.0425   92.1510    3.7545 C.ar    1  UNL1        0.0847
      4 C          58.6182   92.0916    4.2213 C.ar    1  UNL1        0.0205
      5 C          58.2462   91.2219    5.3854 C.ar    1  UNL1        0.0162
      6 C          59.2984   90.4116    6.0826 C.ar    1  UNL1        0.0506
      7 C          60.7226   90.4710    5.6158 C.ar    1  UNL1        0.0162
      8 C          61.0947   91.3407    4.4517 C.ar    1  UNL1        0.0205
      9 C          61.2384   93.7568    0.4293 C.ar    1  UNL1        0.1851
     10 N          60.7358   94.9613    1.1686 N.ar    1  UNL1       -0.2031
     11 C          60.2266   94.5064    2.5042 C.ar    1  UNL1        0.2015
     12 N          60.4145   93.0207    2.5904 N.ar    1  UNL1       -0.2080
     13 N          61.0398   92.5575    1.3080 N.ar    1  UNL1       -0.1441
     14 C          63.6241   93.7392   -5.0760 C.3     1  UNL1        0.0521
     15 C          63.0277   93.7436   -3.6996 C.ar    1  UNL1        0.0594
     16 C          61.5376   93.7556   -3.5280 C.ar    1  UNL1        0.0148
     17 C          60.9412   93.7600   -2.1517 C.ar    1  UNL1        0.0059
     18 C          61.8348   93.7524   -0.9470 C.ar    1  UNL1        0.0567
     19 C          63.3249   93.7404   -1.1187 C.ar    1  UNL1        0.1015
     20 N          63.9213   93.7360   -2.4950 N.ar    1  UNL1       -0.2480
     21 C          59.9988   88.9009    8.0771 C.ar    1  UNL1        0.2207
     22 N          60.2671   87.4305    7.9506 N.ar    1  UNL1       -0.2120
     23 C          61.3395   86.7897    8.7809 C.ar    1  UNL1        0.1034
     24 C          62.1436   87.6192    9.7376 C.ar    1  UNL1        0.0399
     25 C          61.8753   89.0896    9.8641 C.ar    1  UNL1        0.0858
     26 N          60.8029   89.7304    9.0338 N.ar    1  UNL1       -0.2135
     27 C          62.6793   89.9191   10.8207 C.ar    1  UNL1        0.0190
     28 C          62.4614   89.7822   12.2985 C.ar    1  UNL1        0.0016
     29 C          63.2655   90.6118   13.2553 C.ar    1  UNL1        0.0013
     30 C          64.2874   91.5783   12.7342 C.ar    1  UNL1        0.0145
     31 C          64.5053   91.7152   11.2565 C.ar    1  UNL1        0.0480
     32 C          63.7013   90.8856   10.2997 C.ar    1  UNL1        0.0160
     33 N          65.5273   92.6818   10.7355 N.pl3   1  UNL1       -0.3028
     34 C          65.2726   94.1578   10.8150 C.3     1  UNL1        0.1231
     35 C          66.2946   95.1243   10.2940 C.3     1  UNL1        0.1636
     36 O          67.5712   94.6148    9.6934 O.3     1  UNL1       -0.3501
     37 C          67.8258   93.1387    9.6139 C.3     1  UNL1        0.1636
     38 C          66.8039   92.1722   10.1349 C.3     1  UNL1        0.1231
@<TRIPOS>BOND
     1    14    15    1
     2    15    16   ar
     3    16    17   ar
     4    17    18   ar
     5    18     9    1
     6     9    10   ar
     7    10    11   ar
     8    11    12   ar
     9    12     3    1
    10     3     4   ar
    11     4     5   ar
    12     5     6   ar
    13     6     1    1
    14     1    21    1
    15    21    22   ar
    16    22    23   ar
    17    23    24   ar
    18    24    25   ar
    19    25    27    1
    20    27    28   ar
    21    28    29   ar
    22    29    30   ar
    23    30    31   ar
    24    31    33    1
    25    33    34    1
    26    34    35    1
    27    35    36    1
    28    36    37    1
    29    37    38    1
    30    31    32   ar
    31    25    26   ar
    32     6     7   ar
    33     7     8   ar
    34    12    13   ar
    35    18    19   ar
    36    19    20   ar
    37    20    15   ar
    38    13     9   ar
    39     8     3   ar
    40    26    21   ar
    41    32    27   ar
    42    38    33    1
    43     1     2    1
@<TRIPOS>MOLECULE
*****
 38 43 0 0 0
SMALL
GASTEIGER

@<TRIPOS>ATOM
      1 N          59.2521   93.2172    3.0939 N.pl3   1  UNL1       -0.2825
      2 H          58.6525   93.9837    3.2428 H       1  UNL1        0.1551
      3 C          59.5865   89.9840    6.2059 C.ar    1  UNL1        0.0847
      4 C          58.2428   90.5507    5.8545 C.ar    1  UNL1        0.0205
      5 C          58.1314   91.6284    4.8172 C.ar    1  UNL1        0.0162
      6 C          59.3636   92.1394    4.1312 C.ar    1  UNL1        0.0506
      7 C          60.7071   91.5727    4.4825 C.ar    1  UNL1        0.0162
      8 C          60.8186   90.4950    5.5199 C.ar    1  UNL1        0.0205
      9 C          60.5012   87.5603    9.0963 C.ar    1  UNL1        0.1851
     10 N          59.2380   86.9353    8.5827 N.ar    1  UNL1       -0.2031
     11 C          58.7416   87.7671    7.4374 C.ar    1  UNL1        0.2015
     12 N          59.6980   88.9063    7.2432 N.ar    1  UNL1       -0.2080
     13 N          60.7854   88.7784    8.2684 N.ar    1  UNL1       -0.1441
     14 C          63.8320   85.5423   13.6606 C.3     1  UNL1        0.0521
     15 C          62.9993   86.0468   12.5195 C.ar    1  UNL1        0.0594
     16 C          62.3023   85.0760   11.6131 C.ar    1  UNL1        0.0148
     17 C          61.4696   85.5805   10.4720 C.ar    1  UNL1        0.0059
     18 C          61.3339   87.0558   10.2374 C.ar    1  UNL1        0.0567
     19 C          62.0309   88.0266   11.1439 C.ar    1  UNL1        0.1015
     20 N          62.8636   87.5220   12.2849 N.ar    1  UNL1       -0.2480
     21 C          60.0542   93.1270    1.8295 C.ar    1  UNL1        0.2207
     22 N          61.5316   92.8759    1.8949 N.ar    1  UNL1       -0.2120
     23 C          62.3337   92.7857    0.6306 C.ar    1  UNL1        0.1034
     24 C          61.6585   92.9467   -0.6991 C.ar    1  UNL1        0.0399
     25 C          60.1811   93.1979   -0.7645 C.ar    1  UNL1        0.0858
     26 N          59.3790   93.2880    0.4998 N.ar    1  UNL1       -0.2135
     27 C          59.5059   93.3589   -2.0941 C.ar    1  UNL1        0.0190
     28 C          59.9319   94.4564   -3.0236 C.ar    1  UNL1        0.0016
     29 C          59.2566   94.6174   -4.3534 C.ar    1  UNL1        0.0013
     30 C          58.1553   93.6809   -4.7536 C.ar    1  UNL1        0.0145
     31 C          57.7293   92.5834   -3.8240 C.ar    1  UNL1        0.0480
     32 C          58.4046   92.4224   -2.4943 C.ar    1  UNL1        0.0160
     33 N          56.6280   91.6469   -4.2242 N.pl3   1  UNL1       -0.3028
     34 C          56.1014   91.6651   -5.6286 C.3     1  UNL1        0.1231
     35 C          55.0001   90.7286   -6.0288 C.3     1  UNL1        0.1636
     36 O          54.4254   89.7740   -5.0246 O.3     1  UNL1       -0.3501
     37 C          54.9519   89.7559   -3.6201 C.3     1  UNL1        0.1636
     38 C          56.0532   90.6924   -3.2200 C.3     1  UNL1        0.1231
@<TRIPOS>BOND
     1    14    15    1
     2    15    16   ar
     3    16    17   ar
     4    17    18   ar
     5    18     9    1
     6     9    10   ar
     7    10    11   ar
     8    11    12   ar
     9    12     3    1
    10     3     4   ar
    11     4     5   ar
    12     5     6   ar
    13     6     1    1
    14     1    21    1
    15    21    22   ar
    16    22    23   ar
    17    23    24   ar
    18    24    25   ar
    19    25    27    1
    20    27    28   ar
    21    28    29   ar
    22    29    30   ar
    23    30    31   ar
    24    31    33    1
    25    33    34    1
    26    34    35    1
    27    35    36    1
    28    36    37    1
    29    37    38    1
    30    31    32   ar
    31    25    26   ar
    32     6     7   ar
    33     7     8   ar
    34    12    13   ar
    35    18    19   ar
    36    19    20   ar
    37    20    15   ar
    38    13     9   ar
    39     8     3   ar
    40    26    21   ar
    41    32    27   ar
    42    38    33    1
    43     1     2    1
@<TRIPOS>MOLECULE
*****
 38 43 0 0 0
SMALL
GASTEIGER

@<TRIPOS>ATOM
      1 N          59.2145   93.3171    3.1412 N.pl3   1  UNL1       -0.2825
      2 H          58.7158   94.1376    3.3588 H       1  UNL1        0.1551
      3 C          59.5820   90.0312    6.1937 C.ar    1  UNL1        0.0847
      4 C          60.8105   90.5785    5.5293 C.ar    1  UNL1        0.0205
      5 C          60.6879   91.6738    4.5118 C.ar    1  UNL1        0.0162
      6 C          59.3370   92.2217    4.1587 C.ar    1  UNL1        0.0506
      7 C          58.1086   91.6745    4.8231 C.ar    1  UNL1        0.0162
      8 C          58.2311   90.5792    5.8406 C.ar    1  UNL1        0.0205
      9 C          60.5103   87.5753    9.0524 C.ar    1  UNL1        0.1851
     10 N          59.2758   86.9255    8.5015 N.ar    1  UNL1       -0.2031
     11 C          58.7777   87.7663    7.3636 C.ar    1  UNL1        0.2015
     12 N          59.7045   88.9359    7.2112 N.ar    1  UNL1       -0.2080
     13 N          60.7753   88.8178    8.2550 N.ar    1  UNL1       -0.1441
     14 C          63.8095   85.5588   13.6404 C.3     1  UNL1        0.0521
     15 C          62.9847   86.0630   12.4934 C.ar    1  UNL1        0.0594
     16 C          62.2719   85.0927   11.5988 C.ar    1  UNL1        0.0148
     17 C          61.4471   85.5969   10.4518 C.ar    1  UNL1        0.0059
     18 C          61.3351   87.0712   10.1994 C.ar    1  UNL1        0.0567
     19 C          62.0479   88.0414   11.0941 C.ar    1  UNL1        0.1015
     20 N          62.8727   87.5373   12.2411 N.ar    1  UNL1       -0.2480
     21 C          59.8517   93.1622    1.7921 C.ar    1  UNL1        0.2207
     22 N          61.2511   92.6339    1.6798 N.ar    1  UNL1       -0.2120
     23 C          61.8883   92.4791    0.3308 C.ar    1  UNL1        0.1034
     24 C          61.1262   92.8525   -0.9060 C.ar    1  UNL1        0.0399
     25 C          59.7269   93.3808   -0.7938 C.ar    1  UNL1        0.0858
     26 N          59.0896   93.5357    0.5553 N.ar    1  UNL1       -0.2135
     27 C          58.9647   93.7543   -2.0305 C.ar    1  UNL1        0.0190
     28 C          59.5976   93.5880   -3.3803 C.ar    1  UNL1        0.0016
     29 C          58.8353   93.9615   -4.6171 C.ar    1  UNL1        0.0013
     30 C          57.4404   94.5012   -4.5041 C.ar    1  UNL1        0.0145
     31 C          56.8075   94.6675   -3.1543 C.ar    1  UNL1        0.0480
     32 C          57.5698   94.2940   -1.9175 C.ar    1  UNL1        0.0160
     33 N          55.4126   95.2072   -3.0414 N.pl3   1  UNL1       -0.3028
     34 C          54.7537   95.3073   -1.6975 C.3     1  UNL1        0.1231
     35 C          53.3588   95.8469   -1.5845 C.3     1  UNL1        0.1636
     36 O          52.6227   96.2865   -2.8154 O.3     1  UNL1       -0.3501
     37 C          53.2815   96.1864   -4.1592 C.3     1  UNL1        0.1636
     38 C          54.6765   95.6467   -4.2722 C.3     1  UNL1        0.1231
@<TRIPOS>BOND
     1    14    15    1
     2    15    16   ar
     3    16    17   ar
     4    17    18   ar
     5    18     9    1
     6     9    10   ar
     7    10    11   ar
     8    11    12   ar
     9    12     3    1
    10     3     4   ar
    11     4     5   ar
    12     5     6   ar
    13     6     1    1
    14     1    21    1
    15    21    22   ar
    16    22    23   ar
    17    23    24   ar
    18    24    25   ar
    19    25    27    1
    20    27    28   ar
    21    28    29   ar
    22    29    30   ar
    23    30    31   ar
    24    31    33    1
    25    33    34    1
    26    34    35    1
    27    35    36    1
    28    36    37    1
    29    37    38    1
    30    31    32   ar
    31    25    26   ar
    32     6     7   ar
    33     7     8   ar
    34    12    13   ar
    35    18    19   ar
    36    19    20   ar
    37    20    15   ar
    38    13     9   ar
    39     8     3   ar
    40    26    21   ar
    41    32    27   ar
    42    38    33    1
    43     1     2    1
@<TRIPOS>MOLECULE
*****
 38 43 0 0 0
SMALL
GASTEIGER

@<TRIPOS>ATOM
      1 N          59.2468   90.5232    5.9183 N.pl3   1  UNL1       -0.2825
      2 H          58.2738   90.6674    5.8765 H       1  UNL1        0.1551
      3 C          61.0154   88.0592    9.2426 C.ar    1  UNL1        0.0847
      4 C          60.2918   87.3867    8.1138 C.ar    1  UNL1        0.0205
      5 C          59.7023   88.2080    7.0058 C.ar    1  UNL1        0.0162
      6 C          59.8364   89.7018    7.0265 C.ar    1  UNL1        0.0506
      7 C          60.5599   90.3743    8.1552 C.ar    1  UNL1        0.0162
      8 C          61.1494   89.5530    9.2633 C.ar    1  UNL1        0.0205
      9 C          62.2541   85.3495   11.7303 C.ar    1  UNL1        0.1851
     10 N          62.7700   86.5984   12.3815 N.ar    1  UNL1       -0.2031
     11 C          62.3688   87.7655   11.5289 C.ar    1  UNL1        0.2015
     12 N          61.6049   87.2379   10.3507 N.ar    1  UNL1       -0.2080
     13 N          61.5340   85.7447   10.4752 N.ar    1  UNL1       -0.1441
     14 C          62.9489   79.7552   13.7850 C.3     1  UNL1        0.0521
     15 C          62.7752   81.1538   13.2713 C.ar    1  UNL1        0.0594
     16 C          62.8803   81.4312   11.8009 C.ar    1  UNL1        0.0148
     17 C          62.7067   82.8298   11.2873 C.ar    1  UNL1        0.0059
     18 C          62.4278   83.9509   12.2439 C.ar    1  UNL1        0.0567
     19 C          62.3226   83.6735   13.7143 C.ar    1  UNL1        0.1015
     20 N          62.4963   82.2749   14.2279 N.ar    1  UNL1       -0.2480
     21 C          60.1398   91.1249    4.8740 C.ar    1  UNL1        0.2207
     22 N          61.5867   90.7348    4.8092 N.ar    1  UNL1       -0.2120
     23 C          62.4797   91.3365    3.7649 C.ar    1  UNL1        0.1034
     24 C          61.9258   92.3284    2.7854 C.ar    1  UNL1        0.0399
     25 C          60.4789   92.7185    2.8502 C.ar    1  UNL1        0.0858
     26 N          59.5859   92.1168    3.8946 N.ar    1  UNL1       -0.2135
     27 C          59.9249   93.7103    1.8709 C.ar    1  UNL1        0.0190
     28 C          60.2137   95.1726    2.0397 C.ar    1  UNL1        0.0016
     29 C          59.6597   96.1645    1.0603 C.ar    1  UNL1        0.0013
     30 C          58.8170   95.6942   -0.0880 C.ar    1  UNL1        0.0145
     31 C          58.5282   94.2320   -0.2569 C.ar    1  UNL1        0.0480
     32 C          59.0822   93.2400    0.7226 C.ar    1  UNL1        0.0160
     33 N          57.6854   93.7617   -1.4051 N.pl3   1  UNL1       -0.3028
     34 C          56.9151   92.4794   -1.2943 C.3     1  UNL1        0.1231
     35 C          56.0724   92.0091   -2.4425 C.3     1  UNL1        0.1636
     36 O          55.9999   92.8211   -3.7017 O.3     1  UNL1       -0.3501
     37 C          56.7702   94.1034   -3.8126 C.3     1  UNL1        0.1636
     38 C          57.6130   94.5737   -2.6643 C.3     1  UNL1        0.1231
@<TRIPOS>BOND
     1    14    15    1
     2    15    16   ar
     3    16    17   ar
     4    17    18   ar
     5    18     9    1
     6     9    10   ar
     7    10    11   ar
     8    11    12   ar
     9    12     3    1
    10     3     4   ar
    11     4     5   ar
    12     5     6   ar
    13     6     1    1
    14     1    21    1
    15    21    22   ar
    16    22    23   ar
    17    23    24   ar
    18    24    25   ar
    19    25    27    1
    20    27    28   ar
    21    28    29   ar
    22    29    30   ar
    23    30    31   ar
    24    31    33    1
    25    33    34    1
    26    34    35    1
    27    35    36    1
    28    36    37    1
    29    37    38    1
    30    31    32   ar
    31    25    26   ar
    32     6     7   ar
    33     7     8   ar
    34    12    13   ar
    35    18    19   ar
    36    19    20   ar
    37    20    15   ar
    38    13     9   ar
    39     8     3   ar
    40    26    21   ar
    41    32    27   ar
    42    38    33    1
    43     1     2    1
@<TRIPOS>MOLECULE
*****
 38 43 0 0 0
SMALL
GASTEIGER

@<TRIPOS>ATOM
      1 N          62.3721   94.9590    0.1199 N.pl3   1  UNL1       -0.2825
      2 H          62.9185   95.7430    0.3564 H       1  UNL1        0.1551
      3 C          60.4961   92.4634    3.3607 C.ar    1  UNL1        0.0847
      4 C          61.9035   92.1873    2.9214 C.ar    1  UNL1        0.0205
      5 C          62.5288   93.0191    1.8411 C.ar    1  UNL1        0.0162
      6 C          61.7468   94.1271    1.2002 C.ar    1  UNL1        0.0506
      7 C          60.3395   94.4032    1.6395 C.ar    1  UNL1        0.0162
      8 C          59.7141   93.5714    2.7198 C.ar    1  UNL1        0.0205
      9 C          59.5876   90.1098    6.3104 C.ar    1  UNL1        0.1851
     10 N          58.2294   90.5933    5.8964 N.ar    1  UNL1       -0.2031
     11 C          58.4044   91.5338    4.7411 C.ar    1  UNL1        0.2015
     12 N          59.8708   91.6316    4.4410 N.ar    1  UNL1       -0.2080
     13 N          60.6021   90.7515    5.4109 N.ar    1  UNL1       -0.1441
     14 C          60.7575   86.2812   10.7795 C.3     1  UNL1        0.0521
     15 C          60.4650   87.2383    9.6622 C.ar    1  UNL1        0.0594
     16 C          59.8852   86.7332    8.3744 C.ar    1  UNL1        0.0148
     17 C          59.5927   87.6904    7.2571 C.ar    1  UNL1        0.0059
     18 C          59.8801   89.1526    7.4277 C.ar    1  UNL1        0.0567
     19 C          60.4600   89.6577    8.7155 C.ar    1  UNL1        0.1015
     20 N          60.7524   88.7006    9.8328 N.ar    1  UNL1       -0.2480
     21 C          62.1649   94.5962   -1.3208 C.ar    1  UNL1        0.2207
     22 N          63.3340   94.1866   -2.1666 N.ar    1  UNL1       -0.2120
     23 C          63.1268   93.8238   -3.6073 C.ar    1  UNL1        0.1034
     24 C          61.7506   93.8705   -4.2021 C.ar    1  UNL1        0.0399
     25 C          60.5815   94.2801   -3.3562 C.ar    1  UNL1        0.0858
     26 N          60.7887   94.6429   -1.9156 N.ar    1  UNL1       -0.2135
     27 C          59.2053   94.3269   -3.9510 C.ar    1  UNL1        0.0190
     28 C          58.6711   95.6145   -4.5049 C.ar    1  UNL1        0.0016
     29 C          57.2948   95.6613   -5.0997 C.ar    1  UNL1        0.0013
     30 C          56.4528   94.4207   -5.1405 C.ar    1  UNL1        0.0145
     31 C          56.9870   93.1331   -4.5865 C.ar    1  UNL1        0.0480
     32 C          58.3633   93.0863   -3.9918 C.ar    1  UNL1        0.0160
     33 N          56.1450   91.8924   -4.6273 N.pl3   1  UNL1       -0.3028
     34 C          55.9845   91.0541   -3.3939 C.3     1  UNL1        0.1231
     35 C          55.1424   89.8134   -3.4347 C.3     1  UNL1        0.1636
     36 O          54.4609   89.4111   -4.7090 O.3     1  UNL1       -0.3501
     37 C          54.6214   90.2494   -5.9424 C.3     1  UNL1        0.1636
     38 C          55.4635   91.4901   -5.9016 C.3     1  UNL1        0.1231
@<TRIPOS>BOND
     1    14    15    1
     2    15    16   ar
     3    16    17   ar
     4    17    18   ar
     5    18     9    1
     6     9    10   ar
     7    10    11   ar
     8    11    12   ar
     9    12     3    1
    10     3     4   ar
    11     4     5   ar
    12     5     6   ar
    13     6     1    1
    14     1    21    1
    15    21    22   ar
    16    22    23   ar
    17    23    24   ar
    18    24    25   ar
    19    25    27    1
    20    27    28   ar
    21    28    29   ar
    22    29    30   ar
    23    30    31   ar
    24    31    33    1
    25    33    34    1
    26    34    35    1
    27    35    36    1
    28    36    37    1
    29    37    38    1
    30    31    32   ar
    31    25    26   ar
    32     6     7   ar
    33     7     8   ar
    34    12    13   ar
    35    18    19   ar
    36    19    20   ar
    37    20    15   ar
    38    13     9   ar
    39     8     3   ar
    40    26    21   ar
    41    32    27   ar
    42    38    33    1
    43     1     2    1
