@<TRIPOS>MOLECULE
*****
 40 45 0 0 0
SMALL
GASTEIGER

@<TRIPOS>ATOM
      1 C          64.3033   89.5813   13.8113 C.ar    1  UNL1        0.0251
      2 C          64.5845   88.2110   14.3527 C.ar    1  UNL1        0.0233
      3 C          63.7750   87.2256   13.5630 C.ar    1  UNL1        0.0918
      4 N          63.6485   85.7334   13.6483 N.ar    1  UNL1       -0.2262
      5 C          62.7406   85.0025   12.7041 C.ar    1  UNL1        0.1604
      6 N          61.9592   85.7637   11.6747 N.ar    1  UNL1       -0.2117
      7 C          62.0857   87.2559   11.5893 C.ar    1  UNL1        0.1409
      8 C          62.9936   87.9868   12.5335 C.ar    1  UNL1        0.0785
      9 S          63.3201   89.4428   12.6870 S.2     1  UNL1       -0.0856
     10 C          62.6141   83.5102   12.7894 C.2     1  UNL1        0.0253
     11 C          61.9803   82.8788   13.9934 C.2     1  UNL1        0.0291
     12 C          61.8538   81.3866   14.0787 C.2     1  UNL1        0.1411
     13 F          61.2200   80.7553   15.2829 F       1  UNL1       -0.2041
     14 C          62.3611   80.5257   12.9600 C.2     1  UNL1        0.0450
     15 C          62.9948   81.1571   11.7559 C.2     1  UNL1        0.0692
     16 N          63.5823   80.5699   10.5068 N.2     1  UNL1       -0.2478
     17 C          64.0718   81.6992    9.6496 C.2     1  UNL1        0.0946
     18 C          63.7869   82.9844   10.3689 C.2     1  UNL1        0.0046
     19 C          63.1213   82.6493   11.6706 C.3     1  UNL1        0.0890
     20 N          61.3043   88.0172   10.5599 N.pl3   1  UNL1       -0.2876
     21 C          60.8136   89.4019   10.8634 C.3     1  UNL1        0.1243
     22 C          60.0322   90.1632    9.8340 C.3     1  UNL1        0.1636
     23 O          59.7414   89.5399    8.5009 O.3     1  UNL1       -0.3501
     24 C          60.2320   88.1553    8.1974 C.3     1  UNL1        0.1636
     25 C          61.0135   87.3939    9.2268 C.3     1  UNL1        0.1243
     26 C          64.9006   90.8648   14.3072 C.3     1  UNL1        0.1058
     27 N          65.9519   94.1302   11.3947 N.3     1  UNL1       -0.2655
     28 C          65.0430   93.0137   10.9736 C.3     1  UNL1        0.0900
     29 C          64.6925   91.9253   11.9445 C.3     1  UNL1        0.0899
     30 N          65.2510   91.9533   13.3364 N.3     1  UNL1       -0.2661
     31 C          66.1600   93.0698   13.7574 C.3     1  UNL1        0.0899
     32 C          66.5104   94.1582   12.7865 C.3     1  UNL1        0.0900
     33 C          65.8363   96.2483   11.4100 C.3     1  UNL1        0.0253
     34 C          66.3024   95.2186   10.4239 C.3     1  UNL1        0.1145
     35 C          66.7686   94.1890    9.4377 C.3     1  UNL1        0.0253
     36 C          66.6528   96.3071    9.4532 C.2     1  UNL1        0.2321
     37 N          68.0488   96.8545    9.4120 N.am    1  UNL1       -0.3278
     38 O          65.6074   96.8483    8.5236 O.2     1  UNL1       -0.2740
     39 H          68.7350   96.4994   10.0221 H       1  UNL1        0.1450
     40 H          68.2788   97.5689    8.7749 H       1  UNL1        0.1450
@<TRIPOS>BOND
     1    33    34    1
     2    34    35    1
     3    34    36    1
     4    36    37   am
     5    36    38    2
     6    34    27    1
     7    27    28    1
     8    28    29    1
     9    29    30    1
    10    30    26    1
    11    26     1    1
    12     1     2   ar
    13     2     3   ar
    14     3     4   ar
    15     4     5   ar
    16     5    10    1
    17    10    11    2
    18    11    12    1
    19    12    13    1
    20    12    14    2
    21    14    15    1
    22    15    16    2
    23    16    17    1
    24    17    18    2
    25    18    19    1
    26     5     6   ar
    27     6     7   ar
    28     7    20    1
    29    20    21    1
    30    21    22    1
    31    22    23    1
    32    23    24    1
    33    24    25    1
    34     7     8   ar
    35     8     9   ar
    36    30    31    1
    37    31    32    1
    38    32    27    1
    39     9     1   ar
    40     8     3   ar
    41    19    10    1
    42    25    20    1
    43    19    15    1
    44    37    39    1
    45    37    40    1
@<TRIPOS>MOLECULE
*****
 40 45 0 0 0
SMALL
GASTEIGER

@<TRIPOS>ATOM
      1 C          59.5816   88.7835    8.0094 C.ar    1  UNL1        0.0251
      2 C          59.6349   87.2896    8.1344 C.ar    1  UNL1        0.0233
      3 C          60.6498   86.9484    9.1849 C.ar    1  UNL1        0.0918
      4 N          61.1254   85.6351    9.7319 N.ar    1  UNL1       -0.2262
      5 C          62.1750   85.6048   10.8031 C.ar    1  UNL1        0.1604
      6 N          62.7489   86.8876   11.3273 N.ar    1  UNL1       -0.2117
      7 C          62.2733   88.2009   10.7804 C.ar    1  UNL1        0.1409
      8 C          61.2237   88.2312    9.7092 C.ar    1  UNL1        0.0785
      9 S          60.5636   89.3654    8.9827 S.2     1  UNL1       -0.0856
     10 C          62.6507   84.2915   11.3501 C.2     1  UNL1        0.0253
     11 C          62.7459   83.0948   10.4508 C.2     1  UNL1        0.0291
     12 C          63.2215   81.7815   10.9977 C.2     1  UNL1        0.1411
     13 F          63.3166   80.5848   10.0984 F       1  UNL1       -0.2041
     14 C          63.6020   81.6651   12.4440 C.2     1  UNL1        0.0450
     15 C          63.5069   82.8618   13.3433 C.2     1  UNL1        0.0692
     16 N          63.8106   83.0491   14.8003 N.2     1  UNL1       -0.2478
     17 C          63.5226   84.4781   15.1538 C.2     1  UNL1        0.0946
     18 C          63.0409   85.1740   13.9152 C.2     1  UNL1        0.0046
     19 C          63.0312   84.1750   12.7963 C.3     1  UNL1        0.0890
     20 N          62.8472   89.4837   11.3046 N.pl3   1  UNL1       -0.2876
     21 C          63.2488   90.5705   10.3517 C.3     1  UNL1        0.1243
     22 C          63.8227   91.8533   10.8759 C.3     1  UNL1        0.1636
     23 O          63.9951   92.0496   12.3531 O.3     1  UNL1       -0.3501
     24 C          63.5936   90.9629   13.3059 C.3     1  UNL1        0.1636
     25 C          63.0196   89.6800   12.7817 C.3     1  UNL1        0.1243
     26 C          58.7010   89.5592    7.0752 C.3     1  UNL1        0.1058
     27 N          60.5283   91.9874    3.7563 N.3     1  UNL1       -0.2655
     28 C          59.0955   92.2049    4.1434 C.3     1  UNL1        0.0900
     29 C          58.4865   91.3954    5.2498 C.3     1  UNL1        0.0899
     30 N          59.3102   90.3686    5.9689 N.3     1  UNL1       -0.2661
     31 C          60.7430   90.1512    5.5817 C.3     1  UNL1        0.0899
     32 C          61.3520   90.9606    4.4755 C.3     1  UNL1        0.0900
     33 C          59.7985   93.4073    2.3595 C.3     1  UNL1        0.0253
     34 C          61.1374   92.7968    2.6500 C.3     1  UNL1        0.1145
     35 C          62.4764   92.1863    2.9406 C.3     1  UNL1        0.0253
     36 C          61.7465   93.6062    1.5438 C.2     1  UNL1        0.2321
     37 N          63.1501   93.3263    1.0947 N.am    1  UNL1       -0.3278
     38 O          60.9520   94.6956    0.8864 O.2     1  UNL1       -0.2740
     39 H          63.6715   92.6113    1.5261 H       1  UNL1        0.1450
     40 H          63.5498   93.8575    0.3686 H       1  UNL1        0.1450
@<TRIPOS>BOND
     1    33    34    1
     2    34    35    1
     3    34    36    1
     4    36    37   am
     5    36    38    2
     6    34    27    1
     7    27    28    1
     8    28    29    1
     9    29    30    1
    10    30    26    1
    11    26     1    1
    12     1     2   ar
    13     2     3   ar
    14     3     4   ar
    15     4     5   ar
    16     5    10    1
    17    10    11    2
    18    11    12    1
    19    12    13    1
    20    12    14    2
    21    14    15    1
    22    15    16    2
    23    16    17    1
    24    17    18    2
    25    18    19    1
    26     5     6   ar
    27     6     7   ar
    28     7    20    1
    29    20    21    1
    30    21    22    1
    31    22    23    1
    32    23    24    1
    33    24    25    1
    34     7     8   ar
    35     8     9   ar
    36    30    31    1
    37    31    32    1
    38    32    27    1
    39     9     1   ar
    40     8     3   ar
    41    19    10    1
    42    25    20    1
    43    19    15    1
    44    37    39    1
    45    37    40    1
@<TRIPOS>MOLECULE
*****
 40 45 0 0 0
SMALL
GASTEIGER

@<TRIPOS>ATOM
      1 C          59.6036   88.8189    8.1480 C.ar    1  UNL1        0.0251
      2 C          59.5806   87.3751    8.5541 C.ar    1  UNL1        0.0233
      3 C          60.6150   87.1776    9.6223 C.ar    1  UNL1        0.0918
      4 N          61.0395   85.9650   10.3964 N.ar    1  UNL1       -0.2262
      5 C          62.1262   86.0741   11.4247 C.ar    1  UNL1        0.1604
      6 N          62.7883   87.3957   11.6788 N.ar    1  UNL1       -0.2117
      7 C          62.3638   88.6084   10.9047 C.ar    1  UNL1        0.1409
      8 C          61.2772   88.4993    9.8764 C.ar    1  UNL1        0.0785
      9 S          60.6521   89.5137    8.9653 S.2     1  UNL1       -0.0856
     10 C          62.5507   84.8614   12.1989 C.2     1  UNL1        0.0253
     11 C          62.2353   84.7571   13.6616 C.2     1  UNL1        0.0291
     12 C          62.6598   83.5444   14.4358 C.2     1  UNL1        0.1411
     13 F          62.3444   83.4402   15.8986 F       1  UNL1       -0.2041
     14 C          63.3996   82.4360   13.7471 C.2     1  UNL1        0.0450
     15 C          63.7149   82.5403   12.2843 C.2     1  UNL1        0.0692
     16 N          64.4254   81.6142   11.3422 N.2     1  UNL1       -0.2478
     17 C          64.4401   82.2545    9.9859 C.2     1  UNL1        0.0946
     18 C          63.7386   83.5764   10.0897 C.2     1  UNL1        0.0046
     19 C          63.2904   83.7530   11.5102 C.3     1  UNL1        0.0890
     20 N          63.0260   89.9301   11.1588 N.pl3   1  UNL1       -0.2876
     21 C          63.4980   90.2794   12.5392 C.3     1  UNL1        0.1243
     22 C          64.1602   91.6011   12.7933 C.3     1  UNL1        0.1636
     23 O          64.3505   92.5735   11.6672 O.3     1  UNL1       -0.3501
     24 C          63.8785   92.2242   10.2869 C.3     1  UNL1        0.1636
     25 C          63.2163   90.9025   10.0326 C.3     1  UNL1        0.1243
     26 C          58.7311   89.4561    7.1074 C.3     1  UNL1        0.1058
     27 N          60.5735   91.9517    3.8474 N.3     1  UNL1       -0.2655
     28 C          59.1384   92.1598    4.2308 C.3     1  UNL1        0.0900
     29 C          58.5243   91.3278    5.3176 C.3     1  UNL1        0.0899
     30 N          59.3453   90.2879    6.0208 N.3     1  UNL1       -0.2661
     31 C          60.7805   90.0799    5.6373 C.3     1  UNL1        0.0899
     32 C          61.3945   90.9118    4.5506 C.3     1  UNL1        0.0900
     33 C          59.8823   93.4971    2.5692 C.3     1  UNL1        0.0253
     34 C          61.1877   92.7835    2.7607 C.3     1  UNL1        0.1145
     35 C          62.4931   92.0699    2.9523 C.3     1  UNL1        0.0253
     36 C          61.8017   93.6154    1.6741 C.2     1  UNL1        0.2321
     37 N          60.9857   94.6673    0.9830 N.am    1  UNL1       -0.3278
     38 O          63.2318   93.3954    1.2784 O.2     1  UNL1       -0.2740
     39 H          60.0471   94.8118    1.2426 H       1  UNL1        0.1450
     40 H          61.3888   95.2133    0.2697 H       1  UNL1        0.1450
@<TRIPOS>BOND
     1    33    34    1
     2    34    35    1
     3    34    36    1
     4    36    37   am
     5    36    38    2
     6    34    27    1
     7    27    28    1
     8    28    29    1
     9    29    30    1
    10    30    26    1
    11    26     1    1
    12     1     2   ar
    13     2     3   ar
    14     3     4   ar
    15     4     5   ar
    16     5    10    1
    17    10    11    2
    18    11    12    1
    19    12    13    1
    20    12    14    2
    21    14    15    1
    22    15    16    2
    23    16    17    1
    24    17    18    2
    25    18    19    1
    26     5     6   ar
    27     6     7   ar
    28     7    20    1
    29    20    21    1
    30    21    22    1
    31    22    23    1
    32    23    24    1
    33    24    25    1
    34     7     8   ar
    35     8     9   ar
    36    30    31    1
    37    31    32    1
    38    32    27    1
    39     9     1   ar
    40     8     3   ar
    41    19    10    1
    42    25    20    1
    43    19    15    1
    44    37    39    1
    45    37    40    1
@<TRIPOS>MOLECULE
*****
 40 45 0 0 0
SMALL
GASTEIGER

@<TRIPOS>ATOM
      1 C          59.9985   88.9871    8.2557 C.ar    1  UNL1        0.0251
      2 C          60.3439   90.1479    9.1407 C.ar    1  UNL1        0.0233
      3 C          61.2640   89.6526   10.2168 C.ar    1  UNL1        0.0918
      4 N          61.9275   90.3478   11.3685 N.ar    1  UNL1       -0.2262
      5 C          62.8142   89.5760   12.3004 C.ar    1  UNL1        0.1604
      6 N          63.0374   88.1092   12.0805 N.ar    1  UNL1       -0.2117
      7 C          62.3739   87.4140   10.9288 C.ar    1  UNL1        0.1409
      8 C          61.4873   88.1856    9.9969 C.ar    1  UNL1        0.0785
      9 S          60.7051   87.7743    8.7849 S.2     1  UNL1       -0.0856
     10 C          63.4776   90.2713   13.4522 C.2     1  UNL1        0.0253
     11 C          63.1643   89.8572   14.8594 C.2     1  UNL1        0.0291
     12 C          63.8278   90.5524   16.0111 C.2     1  UNL1        0.1411
     13 F          63.5144   90.1383   17.4184 F       1  UNL1       -0.2041
     14 C          64.8045   91.6618   15.7556 C.2     1  UNL1        0.0450
     15 C          65.1179   92.0759   14.3484 C.2     1  UNL1        0.0692
     16 N          66.0313   93.1272   13.7913 N.2     1  UNL1       -0.2478
     17 C          65.9324   93.0818   12.2952 C.2     1  UNL1        0.0946
     18 C          64.9578   92.0023   11.9278 C.2     1  UNL1        0.0046
     19 C          64.4544   91.3806   13.1967 C.3     1  UNL1        0.0890
     20 N          62.5972   85.9470   10.7089 N.pl3   1  UNL1       -0.2876
     21 C          62.4475   84.9861   11.8510 C.3     1  UNL1        0.1243
     22 C          62.6707   83.5193   11.6312 C.3     1  UNL1        0.1636
     23 O          63.0436   83.0132   10.2692 O.3     1  UNL1       -0.3501
     24 C          63.1933   83.9740    9.1272 C.3     1  UNL1        0.1636
     25 C          62.9700   85.4410    9.3470 C.3     1  UNL1        0.1243
     26 C          59.1035   89.0312    7.0528 C.3     1  UNL1        0.1058
     27 N          59.7376   92.1693    3.8904 N.3     1  UNL1       -0.2655
     28 C          58.3529   91.8712    4.3841 C.3     1  UNL1        0.0900
     29 C          58.1416   90.8251    5.4383 C.3     1  UNL1        0.0899
     30 N          59.3149   90.0772    5.9987 N.3     1  UNL1       -0.2661
     31 C          60.6996   90.3754    5.5049 C.3     1  UNL1        0.0899
     32 C          60.9109   91.4214    4.4508 C.3     1  UNL1        0.0900
     33 C          59.6777   94.2893    3.8477 C.3     1  UNL1        0.0253
     34 C          59.9490   93.2153    2.8363 C.3     1  UNL1        0.1145
     35 C          60.2203   92.1413    1.8249 C.3     1  UNL1        0.0253
     36 C          60.1604   94.2613    1.7823 C.2     1  UNL1        0.2321
     37 N          60.0595   95.7152    2.1376 N.am    1  UNL1       -0.3278
     38 O          60.4728   93.8537    0.3729 O.2     1  UNL1       -0.2740
     39 H          59.8545   95.9828    3.0625 H       1  UNL1        0.1450
     40 H          60.1982   96.4018    1.4458 H       1  UNL1        0.1450
@<TRIPOS>BOND
     1    33    34    1
     2    34    35    1
     3    34    36    1
     4    36    37   am
     5    36    38    2
     6    34    27    1
     7    27    28    1
     8    28    29    1
     9    29    30    1
    10    30    26    1
    11    26     1    1
    12     1     2   ar
    13     2     3   ar
    14     3     4   ar
    15     4     5   ar
    16     5    10    1
    17    10    11    2
    18    11    12    1
    19    12    13    1
    20    12    14    2
    21    14    15    1
    22    15    16    2
    23    16    17    1
    24    17    18    2
    25    18    19    1
    26     5     6   ar
    27     6     7   ar
    28     7    20    1
    29    20    21    1
    30    21    22    1
    31    22    23    1
    32    23    24    1
    33    24    25    1
    34     7     8   ar
    35     8     9   ar
    36    30    31    1
    37    31    32    1
    38    32    27    1
    39     9     1   ar
    40     8     3   ar
    41    19    10    1
    42    25    20    1
    43    19    15    1
    44    37    39    1
    45    37    40    1
@<TRIPOS>MOLECULE
*****
 40 45 0 0 0
SMALL
GASTEIGER

@<TRIPOS>ATOM
      1 C          63.5265   85.6635   14.6989 C.ar    1  UNL1        0.0251
      2 C          64.4605   86.6561   15.3255 C.ar    1  UNL1        0.0233
      3 C          64.4112   87.9159   14.5128 C.ar    1  UNL1        0.0918
      4 N          65.1199   89.2302   14.6548 N.ar    1  UNL1       -0.2262
      5 C          64.8641   90.3307   13.6680 C.ar    1  UNL1        0.1604
      6 N          63.8997   90.1167   12.5393 N.ar    1  UNL1       -0.2117
      7 C          63.1910   88.8024   12.3973 C.ar    1  UNL1        0.1409
      8 C          63.4467   87.7019   13.3840 C.ar    1  UNL1        0.0785
      9 S          62.9000   86.3099   13.4991 S.2     1  UNL1       -0.0856
     10 C          65.5728   91.6451   13.8100 C.2     1  UNL1        0.0253
     11 C          66.2293   92.0067   15.1094 C.2     1  UNL1        0.0291
     12 C          66.9380   93.3210   15.2514 C.2     1  UNL1        0.1411
     13 F          67.5945   93.6826   16.5508 F       1  UNL1       -0.2041
     14 C          66.9902   94.2738   14.0940 C.2     1  UNL1        0.0450
     15 C          66.3338   93.9123   12.7947 C.2     1  UNL1        0.0692
     16 N          66.2210   94.6431   11.4896 N.2     1  UNL1       -0.2478
     17 C          65.4426   93.7804   10.5410 C.2     1  UNL1        0.0946
     18 C          65.0743   92.5164   11.2599 C.2     1  UNL1        0.0046
     19 C          65.6251   92.5979   12.6527 C.3     1  UNL1        0.0890
     20 N          62.2265   88.5884   11.2686 N.pl3   1  UNL1       -0.2876
     21 C          62.3385   87.3648   10.4081 C.3     1  UNL1        0.1243
     22 C          61.3741   87.1508    9.2794 C.3     1  UNL1        0.1636
     23 O          60.2977   88.1605    9.0110 O.3     1  UNL1       -0.3501
     24 C          60.1857   89.3841    9.8714 C.3     1  UNL1        0.1636
     25 C          61.1502   89.5981   11.0002 C.3     1  UNL1        0.1243
     26 C          63.2650   84.2693   15.1866 C.3     1  UNL1        0.1058
     27 N          62.9364   80.8807   12.2439 N.3     1  UNL1       -0.2655
     28 C          61.9398   81.0059   13.3580 C.3     1  UNL1        0.0900
     29 C          62.0494   82.1355   14.3389 C.3     1  UNL1        0.0899
     30 N          63.1555   83.1398   14.2057 N.3     1  UNL1       -0.2661
     31 C          64.1521   83.0146   13.0916 C.3     1  UNL1        0.0899
     32 C          64.0425   81.8851   12.1108 C.3     1  UNL1        0.0900
     33 C          62.4416   78.8221   12.3758 C.3     1  UNL1        0.0253
     34 C          62.8268   79.7512   11.2630 C.3     1  UNL1        0.1145
     35 C          63.2121   80.6803   10.1502 C.3     1  UNL1        0.0253
     36 C          62.7173   78.6217   10.2822 C.2     1  UNL1        0.2321
     37 N          62.8465   77.2036   10.7539 N.am    1  UNL1       -0.3278
     38 O          62.4786   78.9100    8.8297 O.2     1  UNL1       -0.2740
     39 H          63.0032   77.0142   11.7072 H       1  UNL1        0.1450
     40 H          62.7746   76.4622   10.1101 H       1  UNL1        0.1450
@<TRIPOS>BOND
     1    33    34    1
     2    34    35    1
     3    34    36    1
     4    36    37   am
     5    36    38    2
     6    34    27    1
     7    27    28    1
     8    28    29    1
     9    29    30    1
    10    30    26    1
    11    26     1    1
    12     1     2   ar
    13     2     3   ar
    14     3     4   ar
    15     4     5   ar
    16     5    10    1
    17    10    11    2
    18    11    12    1
    19    12    13    1
    20    12    14    2
    21    14    15    1
    22    15    16    2
    23    16    17    1
    24    17    18    2
    25    18    19    1
    26     5     6   ar
    27     6     7   ar
    28     7    20    1
    29    20    21    1
    30    21    22    1
    31    22    23    1
    32    23    24    1
    33    24    25    1
    34     7     8   ar
    35     8     9   ar
    36    30    31    1
    37    31    32    1
    38    32    27    1
    39     9     1   ar
    40     8     3   ar
    41    19    10    1
    42    25    20    1
    43    19    15    1
    44    37    39    1
    45    37    40    1
@<TRIPOS>MOLECULE
*****
 40 45 0 0 0
SMALL
GASTEIGER

@<TRIPOS>ATOM
      1 C          63.6372   86.1935   14.4045 C.ar    1  UNL1        0.0251
      2 C          64.5411   87.2753   14.9168 C.ar    1  UNL1        0.0233
      3 C          64.4080   88.4602   14.0067 C.ar    1  UNL1        0.0918
      4 N          65.0574   89.8122   14.0178 N.ar    1  UNL1       -0.2262
      5 C          64.7205   90.8148   12.9540 C.ar    1  UNL1        0.1604
      6 N          63.7344   90.4652   11.8793 N.ar    1  UNL1       -0.2117
      7 C          63.0849   89.1132   11.8682 C.ar    1  UNL1        0.1409
      8 C          63.4218   88.1106   12.9319 C.ar    1  UNL1        0.0785
      9 S          62.9454   86.7097   13.1777 S.2     1  UNL1       -0.0856
     10 C          65.3699   92.1669   12.9651 C.2     1  UNL1        0.0253
     11 C          65.2215   93.0800   11.7843 C.2     1  UNL1        0.0291
     12 C          65.8709   94.4321   11.7954 C.2     1  UNL1        0.1411
     13 F          65.7224   95.3451   10.6145 F       1  UNL1       -0.2041
     14 C          66.6687   94.8711   12.9873 C.2     1  UNL1        0.0450
     15 C          66.8172   93.9581   14.1681 C.2     1  UNL1        0.0692
     16 N          67.5375   94.1156   15.4744 N.2     1  UNL1       -0.2478
     17 C          67.3333   92.8610   16.2707 C.2     1  UNL1        0.0946
     18 C          66.4868   91.9279   15.4564 C.2     1  UNL1        0.0046
     19 C          66.1678   92.6060   14.1570 C.3     1  UNL1        0.0890
     20 N          62.0987   88.7636   10.7934 N.pl3   1  UNL1       -0.2876
     21 C          62.0959   87.3872   10.1969 C.3     1  UNL1        0.1243
     22 C          61.1097   87.0377    9.1221 C.3     1  UNL1        0.1636
     23 O          60.1263   88.0644    8.6437 O.3     1  UNL1       -0.3501
     24 C          60.1292   89.4407    9.2402 C.3     1  UNL1        0.1636
     25 C          61.1154   89.7904   10.3150 C.3     1  UNL1        0.1243
     26 C          63.4567   84.8340   15.0122 C.3     1  UNL1        0.1058
     27 N          63.0535   81.2199   12.3615 N.3     1  UNL1       -0.2655
     28 C          62.0732   81.4472   13.4739 C.3     1  UNL1        0.0900
     29 C          62.2077   82.6520   14.3574 C.3     1  UNL1        0.0899
     30 N          63.3224   83.6293   14.1286 N.3     1  UNL1       -0.2661
     31 C          64.3027   83.4019   13.0163 C.3     1  UNL1        0.0899
     32 C          64.1682   82.1972   12.1328 C.3     1  UNL1        0.0900
     33 C          63.2717   80.8517   10.2839 C.3     1  UNL1        0.0253
     34 C          62.9192   80.0152   11.4780 C.3     1  UNL1        0.1145
     35 C          62.5667   79.1787   12.6721 C.3     1  UNL1        0.0253
     36 C          62.7849   78.8106   10.5944 C.2     1  UNL1        0.2321
     37 N          62.6955   78.9781    9.1064 N.am    1  UNL1       -0.3278
     38 O          62.7398   77.4384   11.1986 O.2     1  UNL1       -0.2740
     39 H          62.7251   79.8787    8.7098 H       1  UNL1        0.1450
     40 H          62.6074   78.1875    8.5264 H       1  UNL1        0.1450
@<TRIPOS>BOND
     1    33    34    1
     2    34    35    1
     3    34    36    1
     4    36    37   am
     5    36    38    2
     6    34    27    1
     7    27    28    1
     8    28    29    1
     9    29    30    1
    10    30    26    1
    11    26     1    1
    12     1     2   ar
    13     2     3   ar
    14     3     4   ar
    15     4     5   ar
    16     5    10    1
    17    10    11    2
    18    11    12    1
    19    12    13    1
    20    12    14    2
    21    14    15    1
    22    15    16    2
    23    16    17    1
    24    17    18    2
    25    18    19    1
    26     5     6   ar
    27     6     7   ar
    28     7    20    1
    29    20    21    1
    30    21    22    1
    31    22    23    1
    32    23    24    1
    33    24    25    1
    34     7     8   ar
    35     8     9   ar
    36    30    31    1
    37    31    32    1
    38    32    27    1
    39     9     1   ar
    40     8     3   ar
    41    19    10    1
    42    25    20    1
    43    19    15    1
    44    37    39    1
    45    37    40    1
@<TRIPOS>MOLECULE
*****
 40 45 0 0 0
SMALL
GASTEIGER

@<TRIPOS>ATOM
      1 C          59.7381   94.5479   -5.1611 C.ar    1  UNL1        0.0251
      2 C          59.6618   94.5951   -3.6638 C.ar    1  UNL1        0.0233
      3 C          61.0628   94.5897   -3.1280 C.ar    1  UNL1        0.0918
      4 N          61.6024   94.6242   -1.7288 N.ar    1  UNL1       -0.2262
      5 C          63.0841   94.6081   -1.4958 C.ar    1  UNL1        0.1604
      6 N          64.0262   94.5575   -2.6619 N.ar    1  UNL1       -0.2117
      7 C          63.4867   94.5230   -4.0611 C.ar    1  UNL1        0.1409
      8 C          62.0050   94.5390   -4.2941 C.ar    1  UNL1        0.0785
      9 S          61.1862   94.5132   -5.5507 S.2     1  UNL1       -0.0856
     10 C          63.6237   94.6427   -0.0966 C.2     1  UNL1        0.0253
     11 C          64.5736   95.7285    0.3143 C.2     1  UNL1        0.0291
     12 C          65.1132   95.7630    1.7135 C.2     1  UNL1        0.1411
     13 F          66.0631   96.8488    2.1244 F       1  UNL1       -0.2041
     14 C          64.7028   94.7118    2.7017 C.2     1  UNL1        0.0450
     15 C          63.7530   93.6260    2.2908 C.2     1  UNL1        0.0692
     16 N          63.1728   92.4633    3.0402 N.2     1  UNL1       -0.2478
     17 C          62.2747   91.7102    2.1042 C.2     1  UNL1        0.0946
     18 C          62.2998   92.4075    0.7763 C.2     1  UNL1        0.0046
     19 C          63.2134   93.5915    0.8916 C.3     1  UNL1        0.0890
     20 N          64.4288   94.4724   -5.2272 N.pl3   1  UNL1       -0.2876
     21 C          65.1343   95.7178   -5.6760 C.3     1  UNL1        0.1243
     22 C          66.0764   95.6672   -6.8420 C.3     1  UNL1        0.1636
     23 O          66.3131   94.3712   -7.5594 O.3     1  UNL1       -0.3501
     24 C          65.6077   93.1259   -7.1106 C.3     1  UNL1        0.1636
     25 C          64.6655   93.1764   -5.9445 C.3     1  UNL1        0.1243
     26 C          58.5711   94.5372   -6.1035 C.3     1  UNL1        0.1058
     27 N          55.5206   91.2372   -5.8702 N.3     1  UNL1       -0.2655
     28 C          55.7327   91.9726   -7.1602 C.3     1  UNL1        0.0900
     29 C          56.7496   93.0727   -7.2379 C.3     1  UNL1        0.0899
     30 N          57.5543   93.4372   -6.0257 N.3     1  UNL1       -0.2661
     31 C          57.3422   92.7017   -4.7357 C.3     1  UNL1        0.0899
     32 C          56.3254   91.6017   -4.6580 C.3     1  UNL1        0.0900
     33 C          54.1558   90.3568   -7.2348 C.3     1  UNL1        0.0253
     34 C          54.5038   90.1372   -5.7924 C.3     1  UNL1        0.1145
     35 C          54.8519   89.9175   -4.3500 C.3     1  UNL1        0.0253
     36 C          53.4870   89.0372   -5.7147 C.2     1  UNL1        0.2321
     37 N          53.8984   87.6657   -5.2675 N.am    1  UNL1       -0.3278
     38 O          52.0588   89.3085   -6.0841 O.2     1  UNL1       -0.2740
     39 H          54.8358   87.4876   -5.0250 H       1  UNL1        0.1450
     40 H          53.2310   86.9438   -5.2165 H       1  UNL1        0.1450
@<TRIPOS>BOND
     1    33    34    1
     2    34    35    1
     3    34    36    1
     4    36    37   am
     5    36    38    2
     6    34    27    1
     7    27    28    1
     8    28    29    1
     9    29    30    1
    10    30    26    1
    11    26     1    1
    12     1     2   ar
    13     2     3   ar
    14     3     4   ar
    15     4     5   ar
    16     5    10    1
    17    10    11    2
    18    11    12    1
    19    12    13    1
    20    12    14    2
    21    14    15    1
    22    15    16    2
    23    16    17    1
    24    17    18    2
    25    18    19    1
    26     5     6   ar
    27     6     7   ar
    28     7    20    1
    29    20    21    1
    30    21    22    1
    31    22    23    1
    32    23    24    1
    33    24    25    1
    34     7     8   ar
    35     8     9   ar
    36    30    31    1
    37    31    32    1
    38    32    27    1
    39     9     1   ar
    40     8     3   ar
    41    19    10    1
    42    25    20    1
    43    19    15    1
    44    37    39    1
    45    37    40    1
@<TRIPOS>MOLECULE
*****
 40 45 0 0 0
SMALL
GASTEIGER

@<TRIPOS>ATOM
      1 C          63.8531   87.9395   14.2969 C.ar    1  UNL1        0.0251
      2 C          64.8065   89.0971   14.3300 C.ar    1  UNL1        0.0233
      3 C          64.5881   89.9130   13.0904 C.ar    1  UNL1        0.0918
      4 N          65.2397   91.1665   12.5862 N.ar    1  UNL1       -0.2262
      5 C          64.8029   91.7666   11.2827 C.ar    1  UNL1        0.1604
      6 N          63.7147   91.1133   10.4835 N.ar    1  UNL1       -0.2117
      7 C          63.0631   89.8598   10.9877 C.ar    1  UNL1        0.1409
      8 C          63.4998   89.2597   12.2912 C.ar    1  UNL1        0.0785
      9 S          63.0456   88.0400   13.0368 S.2     1  UNL1       -0.0856
     10 C          65.4545   93.0202   10.7784 C.2     1  UNL1        0.0253
     11 C          64.6868   94.3087   10.7585 C.2     1  UNL1        0.0291
     12 C          65.3384   95.5621   10.2543 C.2     1  UNL1        0.1411
     13 F          64.5706   96.8507   10.2344 F       1  UNL1       -0.2041
     14 C          66.7577   95.5271    9.7700 C.2     1  UNL1        0.0450
     15 C          67.5253   94.2386    9.7899 C.2     1  UNL1        0.0692
     16 N          68.9275   93.8992    9.3791 N.2     1  UNL1       -0.2478
     17 C          69.1425   92.4359    9.6294 C.2     1  UNL1        0.0946
     18 C          67.8732   91.8710   10.1950 C.2     1  UNL1        0.0046
     19 C          66.8737   92.9851   10.2941 C.3     1  UNL1        0.0890
     20 N          61.9748   89.2065   10.1884 N.pl3   1  UNL1       -0.2876
     21 C          62.0710   87.7507    9.8399 C.3     1  UNL1        0.1243
     22 C          60.9828   87.0974    9.0407 C.3     1  UNL1        0.1636
     23 O          59.7983   87.8998    8.5899 O.3     1  UNL1       -0.3501
     24 C          59.7021   89.3556    8.9384 C.3     1  UNL1        0.1636
     25 C          60.7904   90.0090    9.7377 C.3     1  UNL1        0.1243
     26 C          63.7291   86.8693   15.3405 C.3     1  UNL1        0.1058
     27 N          62.9428   82.6114   14.1148 N.3     1  UNL1       -0.2655
     28 C          62.0920   83.2581   15.1674 C.3     1  UNL1        0.0900
     29 C          62.3542   84.6775   15.5759 C.3     1  UNL1        0.0899
     30 N          63.4670   85.4500   14.9319 N.3     1  UNL1       -0.2661
     31 C          64.3178   84.8032   13.8794 C.3     1  UNL1        0.0899
     32 C          64.0557   83.3839   13.4708 C.3     1  UNL1        0.0900
     33 C          64.0243   81.1354   13.0416 C.3     1  UNL1        0.0253
     34 C          62.6808   81.1921   13.7062 C.3     1  UNL1        0.1145
     35 C          61.3373   81.2488   14.3709 C.3     1  UNL1        0.0253
     36 C          62.4188   79.7728   13.2976 C.2     1  UNL1        0.2321
     37 N          62.0215   78.7570   14.3273 N.am    1  UNL1       -0.3278
     38 O          62.5542   79.3693   11.8593 O.2     1  UNL1       -0.2740
     39 H          61.9326   79.0219   15.2714 H       1  UNL1        0.1450
     40 H          61.8495   77.8255   14.0591 H       1  UNL1        0.1450
@<TRIPOS>BOND
     1    33    34    1
     2    34    35    1
     3    34    36    1
     4    36    37   am
     5    36    38    2
     6    34    27    1
     7    27    28    1
     8    28    29    1
     9    29    30    1
    10    30    26    1
    11    26     1    1
    12     1     2   ar
    13     2     3   ar
    14     3     4   ar
    15     4     5   ar
    16     5    10    1
    17    10    11    2
    18    11    12    1
    19    12    13    1
    20    12    14    2
    21    14    15    1
    22    15    16    2
    23    16    17    1
    24    17    18    2
    25    18    19    1
    26     5     6   ar
    27     6     7   ar
    28     7    20    1
    29    20    21    1
    30    21    22    1
    31    22    23    1
    32    23    24    1
    33    24    25    1
    34     7     8   ar
    35     8     9   ar
    36    30    31    1
    37    31    32    1
    38    32    27    1
    39     9     1   ar
    40     8     3   ar
    41    19    10    1
    42    25    20    1
    43    19    15    1
    44    37    39    1
    45    37    40    1
@<TRIPOS>MOLECULE
*****
 40 45 0 0 0
SMALL
GASTEIGER

@<TRIPOS>ATOM
      1 C          60.1475   89.0922    8.2631 C.ar    1  UNL1        0.0251
      2 C          60.5878   90.3009    9.0346 C.ar    1  UNL1        0.0233
      3 C          61.5022   89.8426   10.1318 C.ar    1  UNL1        0.0918
      4 N          62.2373   90.5911   11.2038 N.ar    1  UNL1       -0.2262
      5 C          63.0974   89.8476   12.1825 C.ar    1  UNL1        0.1604
      6 N          63.2223   88.3559   12.0890 N.ar    1  UNL1       -0.2117
      7 C          62.4872   87.6074   11.0169 C.ar    1  UNL1        0.1409
      8 C          61.6272   88.3508   10.0383 C.ar    1  UNL1        0.0785
      9 S          60.7899   87.8870    8.8834 S.2     1  UNL1       -0.0856
     10 C          63.8326   90.5962   13.2546 C.2     1  UNL1        0.0253
     11 C          64.8404   91.6428   12.8822 C.2     1  UNL1        0.0291
     12 C          65.5755   92.3913   13.9543 C.2     1  UNL1        0.1411
     13 F          66.5834   93.4380   13.5818 F       1  UNL1       -0.2041
     14 C          65.3028   92.0931   15.3988 C.2     1  UNL1        0.0450
     15 C          64.2949   91.0464   15.7713 C.2     1  UNL1        0.0692
     16 N          63.8189   90.5392   17.1003 N.2     1  UNL1       -0.2478
     17 C          62.7897   89.4773   16.8496 C.2     1  UNL1        0.0946
     18 C          62.6295   89.3282   15.3655 C.2     1  UNL1        0.0046
     19 C          63.5598   90.2979   14.6992 C.3     1  UNL1        0.0890
     20 N          62.6122   86.1155   10.9234 N.pl3   1  UNL1       -0.2876
     21 C          62.4363   85.2698   12.1499 C.3     1  UNL1        0.1243
     22 C          62.5612   83.7781   12.0564 C.3     1  UNL1        0.1636
     23 O          62.8620   83.1317   10.7366 O.3     1  UNL1       -0.3501
     24 C          63.0379   83.9774    9.5102 C.3     1  UNL1        0.1636
     25 C          62.9129   85.4693    9.6036 C.3     1  UNL1        0.1243
     26 C          59.2265   89.0893    7.0791 C.3     1  UNL1        0.1058
     27 N          59.7419   92.1493    3.8201 N.3     1  UNL1       -0.2655
     28 C          60.9280   91.3789    4.3199 C.3     1  UNL1        0.0900
     29 C          60.7561   90.3589    5.4063 C.3     1  UNL1        0.0899
     30 N          59.3983   90.1093    5.9928 N.3     1  UNL1       -0.2661
     31 C          58.2123   90.8797    5.4929 C.3     1  UNL1        0.0899
     32 C          58.3841   91.8996    4.4066 C.3     1  UNL1        0.0900
     33 C          60.0757   92.0694    1.7267 C.3     1  UNL1        0.0253
     34 C          59.9137   93.1692    2.7338 C.3     1  UNL1        0.1145
     35 C          59.7516   94.2691    3.7408 C.3     1  UNL1        0.0253
     36 C          60.0854   94.1891    1.6474 C.2     1  UNL1        0.2321
     37 N          60.5774   93.7681    0.2943 N.am    1  UNL1       -0.3278
     38 O          59.7653   95.6301    1.9140 O.2     1  UNL1       -0.2740
     39 H          60.7875   92.8223    0.1193 H       1  UNL1        0.1450
     40 H          60.6901   94.4375   -0.4187 H       1  UNL1        0.1450
@<TRIPOS>BOND
     1    33    34    1
     2    34    35    1
     3    34    36    1
     4    36    37   am
     5    36    38    2
     6    34    27    1
     7    27    28    1
     8    28    29    1
     9    29    30    1
    10    30    26    1
    11    26     1    1
    12     1     2   ar
    13     2     3   ar
    14     3     4   ar
    15     4     5   ar
    16     5    10    1
    17    10    11    2
    18    11    12    1
    19    12    13    1
    20    12    14    2
    21    14    15    1
    22    15    16    2
    23    16    17    1
    24    17    18    2
    25    18    19    1
    26     5     6   ar
    27     6     7   ar
    28     7    20    1
    29    20    21    1
    30    21    22    1
    31    22    23    1
    32    23    24    1
    33    24    25    1
    34     7     8   ar
    35     8     9   ar
    36    30    31    1
    37    31    32    1
    38    32    27    1
    39     9     1   ar
    40     8     3   ar
    41    19    10    1
    42    25    20    1
    43    19    15    1
    44    37    39    1
    45    37    40    1
