@<TRIPOS>MOLECULE
*****
 37 41 0 0 0
SMALL
GASTEIGER

@<TRIPOS>ATOM
      1 C          63.5664   88.1654   15.4848 C.3     1  UNL1        0.2250
      2 C          63.6973   86.6994   15.1955 C.2     1  UNL1        0.0436
      3 C          63.4568   85.6958   16.2840 C.2     1  UNL1        0.0288
      4 C          63.0853   86.1580   17.6618 C.2     1  UNL1        0.0896
      5 N          62.9544   87.6240   17.9512 N.am    1  UNL1       -0.1770
      6 C          63.1949   88.6277   16.8626 C.2     1  UNL1        0.2627
      7 O          63.0639   90.0937   17.1520 O.2     1  UNL1       -0.2719
      8 C          65.0861   92.8096   11.2748 C.2     1  UNL1        0.0200
      9 C          64.1012   92.0948   10.3979 C.2     1  UNL1       -0.0013
     10 C          63.4004   90.8681   10.9021 C.2     1  UNL1        0.0244
     11 C          62.4154   90.1533   10.0251 C.3     1  UNL1        0.0350
     12 C          63.6846   90.3563   12.2831 C.2     1  UNL1        0.2277
     13 N          63.1514   89.1808   13.0472 N.2     1  UNL1       -0.0345
     14 C          63.8069   89.1692   14.3964 C.2     1  UNL1        0.3649
     15 N          64.7451   90.3374   14.4661 N.2     1  UNL1       -0.0380
     16 C          64.6695   91.0712   13.1600 C.2     1  UNL1        0.2172
     17 C          65.3703   92.2978   12.6558 C.3     1  UNL1        0.1070
     18 C          67.5459   96.2424    8.1052 C.3     1  UNL1        0.0515
     19 C          66.9176   95.6142    9.3137 C.ar    1  UNL1        0.0544
     20 C          66.8131   96.2338   10.6758 C.ar    1  UNL1        0.1130
     21 N          66.1143   95.2585   11.5763 N.ar    1  UNL1       -0.2261
     22 C          65.7869   94.0364   10.7706 C.ar    1  UNL1        0.1368
     23 N          66.2833   94.2562    9.3723 N.ar    1  UNL1       -0.3408
     24 H          66.2064   93.6207    8.6243 H       1  UNL1        0.1671
     25 N          64.0688   86.2371   13.8178 N.pl3   1  UNL1       -0.3329
     26 H          64.2792   86.8962   13.1174 H       1  UNL1        0.1466
     27 C          64.1197   84.7705   13.5070 C.3     1  UNL1        0.1211
     28 C          63.0653   84.1509   12.6385 C.3     1  UNL1        0.1522
     29 O          62.3786   82.8910   13.0756 O.3     1  UNL1       -0.3783
     30 H          62.7312   82.6121   13.9351 H       1  UNL1        0.2109
     31 C          62.6977   84.7912   11.3328 C.ar    1  UNL1        0.0067
     32 C          63.4320   84.4153   10.0800 C.ar    1  UNL1       -0.0018
     33 C          63.0644   85.0556    8.7743 C.ar    1  UNL1        0.0006
     34 C          61.9624   86.0719    8.7214 C.ar    1  UNL1        0.0114
     35 C          61.2281   86.4478    9.9741 C.ar    1  UNL1        0.0574
     36 CL         60.1261   87.4641    9.9212 Cl      1  UNL1       -0.0823
     37 C          61.5957   85.8075   11.2798 C.ar    1  UNL1        0.0095
@<TRIPOS>BOND
     1    18    19    1
     2    19    20   ar
     3    20    21   ar
     4    21    22   ar
     5    22     8    1
     6     8     9    2
     7     9    10    1
     8    10    11    1
     9    10    12    2
    10    12    13    1
    11    13    14    2
    12    14     1    1
    13     1     2    1
    14     2    25    1
    15    25    27    1
    16    27    28    1
    17    28    29    1
    18    28    31    1
    19    31    32   ar
    20    32    33   ar
    21    33    34   ar
    22    34    35   ar
    23    35    36    1
    24    35    37   ar
    25     2     3    2
    26     3     4    1
    27     4     5    2
    28     5     6    1
    29     6     7    2
    30    14    15    1
    31    15    16    2
    32    16    17    1
    33    22    23   ar
    34    23    19   ar
    35    17     8    1
    36    16    12    1
    37     6     1    1
    38    37    31   ar
    39    25    26    1
    40    29    30    1
    41    23    24    1
@<TRIPOS>MOLECULE
*****
 37 41 0 0 0
SMALL
GASTEIGER

@<TRIPOS>ATOM
      1 C          63.5918   88.3444   15.5405 C.3     1  UNL1        0.2250
      2 C          63.8192   86.8808   15.3037 C.2     1  UNL1        0.0436
      3 C          63.5743   85.8955   16.4079 C.2     1  UNL1        0.0288
      4 C          63.1021   86.3738   17.7489 C.2     1  UNL1        0.0896
      5 N          62.8747   87.8374   17.9857 N.am    1  UNL1       -0.1770
      6 C          63.1196   88.8227   16.8814 C.2     1  UNL1        0.2627
      7 O          62.8923   90.2863   17.1183 O.2     1  UNL1       -0.2719
      8 C          65.1217   92.9226   11.2622 C.2     1  UNL1        0.0200
      9 C          64.1535   92.1829   10.3874 C.2     1  UNL1       -0.0013
     10 C          63.4573   90.9596   10.9062 C.2     1  UNL1        0.0244
     11 C          62.4891   90.2199   10.0313 C.3     1  UNL1        0.0350
     12 C          63.7294   90.4762   12.2998 C.2     1  UNL1        0.2277
     13 N          63.1973   89.3105   13.0796 N.2     1  UNL1       -0.0345
     14 C          63.8367   89.3298   14.4363 C.2     1  UNL1        0.3649
     15 N          64.7639   90.5074   14.4951 N.2     1  UNL1       -0.0380
     16 C          64.6976   91.2159   13.1747 C.2     1  UNL1        0.2172
     17 C          65.3938   92.4391   12.6559 C.3     1  UNL1        0.1070
     18 C          67.5582   96.3311    8.0489 C.3     1  UNL1        0.0515
     19 C          66.9379   95.7125    9.2664 C.ar    1  UNL1        0.0544
     20 C          66.8407   96.3436   10.6238 C.ar    1  UNL1        0.1130
     21 N          66.1485   95.3753   11.5367 N.ar    1  UNL1       -0.2261
     22 C          65.8179   94.1458   10.7435 C.ar    1  UNL1        0.1368
     23 N          66.3058   94.3543    9.3404 N.ar    1  UNL1       -0.3408
     24 H          66.2253   93.7123    8.5984 H       1  UNL1        0.1671
     25 N          64.2914   86.4024   13.9627 N.pl3   1  UNL1       -0.3329
     26 H          64.6553   87.0446   13.3112 H       1  UNL1        0.1466
     27 C          64.2093   84.9458   13.6145 C.3     1  UNL1        0.1211
     28 C          62.9703   84.3972   12.9711 C.3     1  UNL1        0.1522
     29 O          61.9238   85.3319   12.4408 O.3     1  UNL1       -0.3783
     30 H          62.2021   86.2486   12.5928 H       1  UNL1        0.2109
     31 C          62.7778   82.9139   12.8579 C.ar    1  UNL1        0.0067
     32 C          62.3707   82.1164   14.0613 C.ar    1  UNL1       -0.0018
     33 C          62.1782   80.6332   13.9482 C.ar    1  UNL1        0.0006
     34 C          62.3929   79.9473   12.6316 C.ar    1  UNL1        0.0114
     35 C          62.8001   80.7447   11.4282 C.ar    1  UNL1        0.0574
     36 CL         63.0148   80.0588   10.1116 Cl      1  UNL1       -0.0823
     37 C          62.9926   82.2280   11.5413 C.ar    1  UNL1        0.0095
@<TRIPOS>BOND
     1    18    19    1
     2    19    20   ar
     3    20    21   ar
     4    21    22   ar
     5    22     8    1
     6     8     9    2
     7     9    10    1
     8    10    11    1
     9    10    12    2
    10    12    13    1
    11    13    14    2
    12    14     1    1
    13     1     2    1
    14     2    25    1
    15    25    27    1
    16    27    28    1
    17    28    29    1
    18    28    31    1
    19    31    32   ar
    20    32    33   ar
    21    33    34   ar
    22    34    35   ar
    23    35    36    1
    24    35    37   ar
    25     2     3    2
    26     3     4    1
    27     4     5    2
    28     5     6    1
    29     6     7    2
    30    14    15    1
    31    15    16    2
    32    16    17    1
    33    22    23   ar
    34    23    19   ar
    35    17     8    1
    36    16    12    1
    37     6     1    1
    38    37    31   ar
    39    25    26    1
    40    29    30    1
    41    23    24    1
@<TRIPOS>MOLECULE
*****
 37 41 0 0 0
SMALL
GASTEIGER

@<TRIPOS>ATOM
      1 C          61.2622   87.9406    9.7540 C.3     1  UNL1        0.2250
      2 C          61.5513   86.5753    9.2042 C.2     1  UNL1        0.0436
      3 C          60.6387   85.9712    8.1784 C.2     1  UNL1        0.0288
      4 C          59.4370   86.7324    7.7023 C.2     1  UNL1        0.0896
      5 N          59.1479   88.0977    8.2521 N.am    1  UNL1       -0.1770
      6 C          60.0605   88.7018    9.2779 C.2     1  UNL1        0.2627
      7 O          59.7714   90.0672    9.8277 O.2     1  UNL1       -0.2719
      8 C          65.2445   91.1274   13.7022 C.2     1  UNL1        0.0200
      9 C          65.0744   89.9144   14.5679 C.2     1  UNL1       -0.0013
     10 C          64.1991   88.7846   14.1124 C.2     1  UNL1        0.0244
     11 C          64.0290   87.5715   14.9783 C.3     1  UNL1        0.0350
     12 C          63.4939   88.8679   12.7912 C.2     1  UNL1        0.2277
     13 N          62.5734   87.9185   12.0832 N.2     1  UNL1       -0.0345
     14 C          62.1747   88.5448   10.7798 C.2     1  UNL1        0.3649
     15 N          62.8487   89.8813   10.6823 N.2     1  UNL1       -0.0380
     16 C          63.6640   90.0810   11.9255 C.2     1  UNL1        0.2172
     17 C          64.5393   91.2108   12.3810 C.3     1  UNL1        0.1070
     18 C          69.0774   93.8614   16.0927 C.3     1  UNL1        0.0515
     19 C          67.8816   93.5139   15.2565 C.ar    1  UNL1        0.0544
     20 C          67.0521   94.4775   14.4607 C.ar    1  UNL1        0.1130
     21 N          65.9632   93.7008   13.7816 N.ar    1  UNL1       -0.2261
     22 C          66.1198   92.2572   14.1577 C.ar    1  UNL1        0.1368
     23 N          67.3055   92.1417   15.0692 N.ar    1  UNL1       -0.3408
     24 H          67.6458   91.3111   15.4736 H       1  UNL1        0.1671
     25 N          62.7528   85.8140    9.6802 N.pl3   1  UNL1       -0.3329
     26 H          63.5347   86.2981   10.0319 H       1  UNL1        0.1466
     27 C          62.7633   84.3153    9.6204 C.3     1  UNL1        0.1211
     28 C          63.6248   83.5329   10.5668 C.3     1  UNL1        0.1522
     29 O          64.9165   82.9389   10.0888 O.3     1  UNL1       -0.3783
     30 H          65.0432   83.1526    9.1511 H       1  UNL1        0.2109
     31 C          63.1944   83.3445   11.9914 C.ar    1  UNL1        0.0067
     32 C          63.5622   84.3652   13.0272 C.ar    1  UNL1       -0.0018
     33 C          63.1318   84.1768   14.4517 C.ar    1  UNL1        0.0006
     34 C          62.3337   82.9677   14.8405 C.ar    1  UNL1        0.0114
     35 C          61.9659   81.9471   13.8046 C.ar    1  UNL1        0.0574
     36 CL         61.1677   80.7380   14.1934 Cl      1  UNL1       -0.0823
     37 C          62.3962   82.1355   12.3801 C.ar    1  UNL1        0.0095
@<TRIPOS>BOND
     1    18    19    1
     2    19    20   ar
     3    20    21   ar
     4    21    22   ar
     5    22     8    1
     6     8     9    2
     7     9    10    1
     8    10    11    1
     9    10    12    2
    10    12    13    1
    11    13    14    2
    12    14     1    1
    13     1     2    1
    14     2    25    1
    15    25    27    1
    16    27    28    1
    17    28    29    1
    18    28    31    1
    19    31    32   ar
    20    32    33   ar
    21    33    34   ar
    22    34    35   ar
    23    35    36    1
    24    35    37   ar
    25     2     3    2
    26     3     4    1
    27     4     5    2
    28     5     6    1
    29     6     7    2
    30    14    15    1
    31    15    16    2
    32    16    17    1
    33    22    23   ar
    34    23    19   ar
    35    17     8    1
    36    16    12    1
    37     6     1    1
    38    37    31   ar
    39    25    26    1
    40    29    30    1
    41    23    24    1
@<TRIPOS>MOLECULE
*****
 37 41 0 0 0
SMALL
GASTEIGER

@<TRIPOS>ATOM
      1 C          62.9947   83.8739   12.1130 C.3     1  UNL1        0.2250
      2 C          62.8025   83.6952   13.5898 C.2     1  UNL1        0.0436
      3 C          63.3400   82.4731   14.2736 C.2     1  UNL1        0.0288
      4 C          64.0698   81.4297   13.4807 C.2     1  UNL1        0.0896
      5 N          64.2620   81.6084   12.0038 N.am    1  UNL1       -0.1770
      6 C          63.7245   82.8305   11.3200 C.2     1  UNL1        0.2627
      7 O          63.9167   83.0092    9.8431 O.2     1  UNL1       -0.2719
      8 C          60.4099   88.6626    8.6503 C.2     1  UNL1        0.0200
      9 C          60.9881   89.5234    9.7340 C.2     1  UNL1       -0.0013
     10 C          61.7428   88.8955   10.8682 C.2     1  UNL1        0.0244
     11 C          62.3210   89.7565   11.9519 C.3     1  UNL1        0.0350
     12 C          61.9192   87.4068   10.9185 C.2     1  UNL1        0.2277
     13 N          62.6091   86.5107   11.9039 N.2     1  UNL1       -0.0345
     14 C          62.4572   85.0959   11.4291 C.2     1  UNL1        0.3649
     15 N          61.6734   85.1177   10.1503 N.2     1  UNL1       -0.0380
     16 C          61.3409   86.5460    9.8348 C.2     1  UNL1        0.2172
     17 C          60.5863   87.1738    8.7006 C.3     1  UNL1        0.1070
     18 C          59.1268   91.7887    4.5930 C.3     1  UNL1        0.0515
     19 C          59.0655   90.7274    5.6511 C.ar    1  UNL1        0.0544
     20 C          57.9226   89.7858    5.8903 C.ar    1  UNL1        0.1130
     21 N          58.2870   88.8977    7.0429 N.ar    1  UNL1       -0.2261
     22 C          59.6552   89.2904    7.5160 C.ar    1  UNL1        0.1368
     23 N          60.1363   90.4212    6.6559 N.ar    1  UNL1       -0.3408
     24 H          61.0028   90.8816    6.7366 H       1  UNL1        0.1671
     25 N          62.0727   84.7385   14.3828 N.pl3   1  UNL1       -0.3329
     26 H          61.1731   85.0271   14.1062 H       1  UNL1        0.1466
     27 C          62.7137   85.3420   15.5973 C.3     1  UNL1        0.1211
     28 C          63.9655   86.1566   15.4582 C.3     1  UNL1        0.1522
     29 O          65.2747   85.4785   15.1824 O.3     1  UNL1       -0.3783
     30 H          65.1365   84.5201   15.1239 H       1  UNL1        0.2109
     31 C          63.9081   87.6492   15.5948 C.ar    1  UNL1        0.0067
     32 C          63.1879   88.2690   16.7554 C.ar    1  UNL1       -0.0018
     33 C          63.1305   89.7617   16.8920 C.ar    1  UNL1        0.0006
     34 C          63.7933   90.6346   15.8680 C.ar    1  UNL1        0.0114
     35 C          64.5135   90.0148   14.7073 C.ar    1  UNL1        0.0574
     36 CL         65.1764   90.8877   13.6833 Cl      1  UNL1       -0.0823
     37 C          64.5709   88.5221   14.5707 C.ar    1  UNL1        0.0095
@<TRIPOS>BOND
     1    18    19    1
     2    19    20   ar
     3    20    21   ar
     4    21    22   ar
     5    22     8    1
     6     8     9    2
     7     9    10    1
     8    10    11    1
     9    10    12    2
    10    12    13    1
    11    13    14    2
    12    14     1    1
    13     1     2    1
    14     2    25    1
    15    25    27    1
    16    27    28    1
    17    28    29    1
    18    28    31    1
    19    31    32   ar
    20    32    33   ar
    21    33    34   ar
    22    34    35   ar
    23    35    36    1
    24    35    37   ar
    25     2     3    2
    26     3     4    1
    27     4     5    2
    28     5     6    1
    29     6     7    2
    30    14    15    1
    31    15    16    2
    32    16    17    1
    33    22    23   ar
    34    23    19   ar
    35    17     8    1
    36    16    12    1
    37     6     1    1
    38    37    31   ar
    39    25    26    1
    40    29    30    1
    41    23    24    1
@<TRIPOS>MOLECULE
*****
 37 41 0 0 0
SMALL
GASTEIGER

@<TRIPOS>ATOM
      1 C          62.9190   83.9996   13.2884 C.3     1  UNL1        0.2250
      2 C          63.1542   83.2419   12.0154 C.2     1  UNL1        0.0436
      3 C          62.8036   81.7857   11.9337 C.2     1  UNL1        0.0288
      4 C          62.2178   81.0872   13.1248 C.2     1  UNL1        0.0896
      5 N          61.9826   81.8449   14.3978 N.am    1  UNL1       -0.1770
      6 C          62.3332   83.3011   14.4796 C.2     1  UNL1        0.2627
      7 O          62.0980   84.0588   15.7526 O.2     1  UNL1       -0.2719
      8 C          64.7866   90.0935   14.2779 C.2     1  UNL1        0.0200
      9 C          64.0457   90.3438   12.9980 C.2     1  UNL1       -0.0013
     10 C          63.3715   89.2079   12.2871 C.2     1  UNL1        0.0244
     11 C          62.6305   89.4583   11.0071 C.3     1  UNL1        0.0350
     12 C          63.4384   87.8217   12.8562 C.2     1  UNL1        0.2277
     13 N          62.8761   86.5142   12.3828 N.2     1  UNL1       -0.0345
     14 C          63.2695   85.4558   13.3702 C.2     1  UNL1        0.3649
     15 N          64.0750   86.1091   14.4538 N.2     1  UNL1       -0.0380
     16 C          64.1795   87.5714   14.1361 C.2     1  UNL1        0.2172
     17 C          64.8535   88.7073   14.8470 C.3     1  UNL1        0.1070
     18 C          68.4272   93.5783   15.8535 C.3     1  UNL1        0.0515
     19 C          67.1342   92.8312   15.7130 C.ar    1  UNL1        0.0544
     20 C          65.8622   93.1235   16.4523 C.ar    1  UNL1        0.1130
     21 N          64.8279   92.1335   16.0047 N.ar    1  UNL1       -0.2261
     22 C          65.4607   91.2294   14.9888 C.ar    1  UNL1        0.1368
     23 N          66.8861   91.6606   14.8085 N.ar    1  UNL1       -0.3408
     24 H          67.5434   91.2478   14.2028 H       1  UNL1        0.1671
     25 N          63.7400   83.9403   10.8242 N.pl3   1  UNL1       -0.3329
     26 H          64.5957   84.4201   10.9064 H       1  UNL1        0.1466
     27 C          63.0220   83.9077    9.5075 C.3     1  UNL1        0.1211
     28 C          62.8676   85.1662    8.7062 C.3     1  UNL1        0.1522
     29 O          64.0169   85.6832    7.8927 O.3     1  UNL1       -0.3783
     30 H          64.7780   85.0906    7.9952 H       1  UNL1        0.2109
     31 C          61.5637   85.9077    8.7182 C.ar    1  UNL1        0.0067
     32 C          60.6418   85.8230    7.5381 C.ar    1  UNL1       -0.0018
     33 C          59.3379   86.5645    7.5501 C.ar    1  UNL1        0.0006
     34 C          58.9560   87.3908    8.7423 C.ar    1  UNL1        0.0114
     35 C          59.8779   87.4755    9.9225 C.ar    1  UNL1        0.0574
     36 CL         59.4960   88.3018   11.1147 Cl      1  UNL1       -0.0823
     37 C          61.1818   86.7340    9.9104 C.ar    1  UNL1        0.0095
@<TRIPOS>BOND
     1    18    19    1
     2    19    20   ar
     3    20    21   ar
     4    21    22   ar
     5    22     8    1
     6     8     9    2
     7     9    10    1
     8    10    11    1
     9    10    12    2
    10    12    13    1
    11    13    14    2
    12    14     1    1
    13     1     2    1
    14     2    25    1
    15    25    27    1
    16    27    28    1
    17    28    29    1
    18    28    31    1
    19    31    32   ar
    20    32    33   ar
    21    33    34   ar
    22    34    35   ar
    23    35    36    1
    24    35    37   ar
    25     2     3    2
    26     3     4    1
    27     4     5    2
    28     5     6    1
    29     6     7    2
    30    14    15    1
    31    15    16    2
    32    16    17    1
    33    22    23   ar
    34    23    19   ar
    35    17     8    1
    36    16    12    1
    37     6     1    1
    38    37    31   ar
    39    25    26    1
    40    29    30    1
    41    23    24    1
@<TRIPOS>MOLECULE
*****
 37 41 0 0 0
SMALL
GASTEIGER

@<TRIPOS>ATOM
      1 C          65.1265   91.5053   13.6266 C.3     1  UNL1        0.2250
      2 C          64.9080   91.9413   12.2081 C.2     1  UNL1        0.0436
      3 C          65.3622   93.2997   11.7626 C.2     1  UNL1        0.0288
      4 C          66.0348   94.2222   12.7356 C.2     1  UNL1        0.0896
      5 N          66.2533   93.7862   14.1541 N.am    1  UNL1       -0.1770
      6 C          65.7991   92.4278   14.5996 C.2     1  UNL1        0.2627
      7 O          66.0176   91.9918   16.0181 O.2     1  UNL1       -0.2719
      8 C          63.3358   85.4302   14.8471 C.2     1  UNL1        0.0200
      9 C          63.0381   85.9773   16.2116 C.2     1  UNL1       -0.0013
     10 C          63.2825   87.4273   16.5081 C.2     1  UNL1        0.0244
     11 C          62.9848   87.9743   17.8728 C.3     1  UNL1        0.0350
     12 C          63.8247   88.3301   15.4400 C.2     1  UNL1        0.2277
     13 N          64.1646   89.7911   15.4380 N.2     1  UNL1       -0.0345
     14 C          64.6724   90.1469   14.0722 C.2     1  UNL1        0.3649
     15 N          64.6463   88.9059   13.2300 N.2     1  UNL1       -0.0380
     16 C          64.1224   87.7830   14.0754 C.2     1  UNL1        0.2172
     17 C          63.8779   86.3331   13.7790 C.3     1  UNL1        0.1070
     18 C          60.9334   80.7739   14.1929 C.3     1  UNL1        0.0515
     19 C          61.9871   81.8400   14.2499 C.ar    1  UNL1        0.0544
     20 C          63.4431   81.6581   13.9388 C.ar    1  UNL1        0.1130
     21 N          64.1257   82.9809   14.1246 N.ar    1  UNL1       -0.2261
     22 C          63.0914   83.9802   14.5506 C.ar    1  UNL1        0.1368
     23 N          61.7697   83.2751   14.6280 N.ar    1  UNL1       -0.3408
     24 H          60.9104   83.6827   14.8823 H       1  UNL1        0.1671
     25 N          64.2355   91.0189   11.2351 N.pl3   1  UNL1       -0.3329
     26 H          64.7716   90.3824   10.7091 H       1  UNL1        0.1466
     27 C          62.7461   91.0663   11.0634 C.3     1  UNL1        0.1211
     28 C          61.9000   89.9208   11.5347 C.3     1  UNL1        0.1522
     29 O          61.4755   89.8432   12.9713 O.3     1  UNL1       -0.3783
     30 H          61.8303   90.6056   13.4549 H       1  UNL1        0.2109
     31 C          61.4784   88.8530   10.5693 C.ar    1  UNL1        0.0067
     32 C          62.0060   87.4568   10.7179 C.ar    1  UNL1       -0.0018
     33 C          61.5844   86.3889    9.7526 C.ar    1  UNL1        0.0006
     34 C          60.6352   86.7173    8.6385 C.ar    1  UNL1        0.0114
     35 C          60.1076   88.1135    8.4898 C.ar    1  UNL1        0.0574
     36 CL         59.1584   88.4419    7.3758 Cl      1  UNL1       -0.0823
     37 C          60.5292   89.1814    9.4552 C.ar    1  UNL1        0.0095
@<TRIPOS>BOND
     1    18    19    1
     2    19    20   ar
     3    20    21   ar
     4    21    22   ar
     5    22     8    1
     6     8     9    2
     7     9    10    1
     8    10    11    1
     9    10    12    2
    10    12    13    1
    11    13    14    2
    12    14     1    1
    13     1     2    1
    14     2    25    1
    15    25    27    1
    16    27    28    1
    17    28    29    1
    18    28    31    1
    19    31    32   ar
    20    32    33   ar
    21    33    34   ar
    22    34    35   ar
    23    35    36    1
    24    35    37   ar
    25     2     3    2
    26     3     4    1
    27     4     5    2
    28     5     6    1
    29     6     7    2
    30    14    15    1
    31    15    16    2
    32    16    17    1
    33    22    23   ar
    34    23    19   ar
    35    17     8    1
    36    16    12    1
    37     6     1    1
    38    37    31   ar
    39    25    26    1
    40    29    30    1
    41    23    24    1
@<TRIPOS>MOLECULE
*****
 37 41 0 0 0
SMALL
GASTEIGER

@<TRIPOS>ATOM
      1 C          62.9681   86.5001   12.4440 C.3     1  UNL1        0.2250
      2 C          63.5997   87.5652   13.2907 C.2     1  UNL1        0.0436
      3 C          64.3182   87.1916   14.5533 C.2     1  UNL1        0.0288
      4 C          64.4053   85.7530   14.9692 C.2     1  UNL1        0.0896
      5 N          63.7738   84.6880   14.1225 N.am    1  UNL1       -0.1770
      6 C          63.0552   85.0616   12.8599 C.2     1  UNL1        0.2627
      7 O          62.4237   83.9966   12.0132 O.2     1  UNL1       -0.2719
      8 C          59.8972   88.8142    7.2655 C.2     1  UNL1        0.0200
      9 C          59.9012   87.3766    6.8378 C.2     1  UNL1       -0.0013
     10 C          60.5256   86.3342    7.7174 C.2     1  UNL1        0.0244
     11 C          60.5297   84.8964    7.2897 C.3     1  UNL1        0.0350
     12 C          61.1459   86.7296    9.0247 C.2     1  UNL1        0.2277
     13 N          61.8305   85.9300   10.0933 N.2     1  UNL1       -0.0345
     14 C          62.2496   86.8736   11.1814 C.2     1  UNL1        0.3649
     15 N          61.8239   88.2564   10.7853 N.2     1  UNL1       -0.0380
     16 C          61.1417   88.1673    9.4523 C.2     1  UNL1        0.2172
     17 C          60.5174   89.2097    8.5727 C.3     1  UNL1        0.1070
     18 C          59.2908   92.8228    3.8825 C.3     1  UNL1        0.0515
     19 C          58.9941   91.6992    4.8309 C.ar    1  UNL1        0.0544
     20 C          57.6302   91.2224    5.2338 C.ar    1  UNL1        0.1130
     21 N          57.8024   90.0836    6.1949 N.ar    1  UNL1       -0.2261
     22 C          59.2728   89.8567    6.3859 C.ar    1  UNL1        0.1368
     23 N          60.0093   90.8552    5.5429 N.ar    1  UNL1       -0.3408
     24 H          60.9873   90.9414    5.4698 H       1  UNL1        0.1671
     25 N          63.5126   89.0037   12.8748 N.pl3   1  UNL1       -0.3329
     26 H          63.7973   89.2731   11.9717 H       1  UNL1        0.1466
     27 C          62.9920   90.0318   13.8349 C.3     1  UNL1        0.1211
     28 C          63.9470   90.9359   14.5564 C.3     1  UNL1        0.1522
     29 O          63.6792   91.3276   15.9794 O.3     1  UNL1       -0.3783
     30 H          62.8549   90.9134   16.2791 H       1  UNL1        0.2109
     31 C          65.1698   91.4483   13.8549 C.ar    1  UNL1        0.0067
     32 C          66.5069   91.3787   14.5311 C.ar    1  UNL1       -0.0018
     33 C          67.7297   91.8912   13.8296 C.ar    1  UNL1        0.0006
     34 C          67.6155   92.4732   12.4518 C.ar    1  UNL1        0.0114
     35 C          66.2784   92.5428   11.7756 C.ar    1  UNL1        0.0574
     36 CL         66.1641   93.1248   10.3979 Cl      1  UNL1       -0.0823
     37 C          65.0556   92.0303   12.4772 C.ar    1  UNL1        0.0095
@<TRIPOS>BOND
     1    18    19    1
     2    19    20   ar
     3    20    21   ar
     4    21    22   ar
     5    22     8    1
     6     8     9    2
     7     9    10    1
     8    10    11    1
     9    10    12    2
    10    12    13    1
    11    13    14    2
    12    14     1    1
    13     1     2    1
    14     2    25    1
    15    25    27    1
    16    27    28    1
    17    28    29    1
    18    28    31    1
    19    31    32   ar
    20    32    33   ar
    21    33    34   ar
    22    34    35   ar
    23    35    36    1
    24    35    37   ar
    25     2     3    2
    26     3     4    1
    27     4     5    2
    28     5     6    1
    29     6     7    2
    30    14    15    1
    31    15    16    2
    32    16    17    1
    33    22    23   ar
    34    23    19   ar
    35    17     8    1
    36    16    12    1
    37     6     1    1
    38    37    31   ar
    39    25    26    1
    40    29    30    1
    41    23    24    1
@<TRIPOS>MOLECULE
*****
 37 41 0 0 0
SMALL
GASTEIGER

@<TRIPOS>ATOM
      1 C          63.1623   83.6529   13.6208 C.3     1  UNL1        0.2250
      2 C          62.6276   83.3450   12.2536 C.2     1  UNL1        0.0436
      3 C          62.3678   81.9231   11.8527 C.2     1  UNL1        0.0288
      4 C          62.6426   80.8091   12.8189 C.2     1  UNL1        0.0896
      5 N          63.1774   81.1171   14.1861 N.am    1  UNL1       -0.1770
      6 C          63.4372   82.5390   14.5870 C.2     1  UNL1        0.2627
      7 O          63.9719   82.8469   15.9542 O.2     1  UNL1       -0.2719
      8 C          64.5872   89.8563   14.6654 C.2     1  UNL1        0.0200
      9 C          63.9572   89.5947   16.0012 C.2     1  UNL1       -0.0013
     10 C          63.4171   88.2325   16.3220 C.2     1  UNL1        0.0244
     11 C          62.7871   87.9710   17.6580 C.3     1  UNL1        0.0350
     12 C          63.5071   87.1320   15.3068 C.2     1  UNL1        0.2277
     13 N          63.0652   85.6989   15.3383 N.2     1  UNL1       -0.0345
     14 C          63.4222   85.0748   14.0218 C.2     1  UNL1        0.3649
     15 N          64.0846   86.1222   13.1767 N.2     1  UNL1       -0.0380
     16 C          64.1371   87.3936   13.9708 C.2     1  UNL1        0.2172
     17 C          64.6771   88.7557   13.6502 C.3     1  UNL1        0.1070
     18 C          66.1569   94.1366   12.0017 C.3     1  UNL1        0.0515
     19 C          65.8488   93.1859   13.1202 C.ar    1  UNL1        0.0544
     20 C          66.0679   93.4432   14.5816 C.ar    1  UNL1        0.1130
     21 N          65.6220   92.2273   15.3384 N.ar    1  UNL1       -0.2261
     22 C          65.1273   91.2185   14.3446 C.ar    1  UNL1        0.1368
     23 N          65.2675   91.8110   12.9737 N.ar    1  UNL1       -0.3408
     24 H          65.0211   91.3741   12.1266 H       1  UNL1        0.1671
     25 N          62.3527   84.4589   11.2873 N.pl3   1  UNL1       -0.3329
     26 H          61.6139   85.0869   11.4574 H       1  UNL1        0.1466
     27 C          63.2034   84.6159   10.0620 C.3     1  UNL1        0.1211
     28 C          62.6597   85.3252    8.8573 C.3     1  UNL1        0.1522
     29 O          62.9122   84.7744    7.4851 O.3     1  UNL1       -0.3783
     30 H          63.4384   83.9625    7.5544 H       1  UNL1        0.2109
     31 C          61.8634   86.5853    9.0248 C.ar    1  UNL1        0.0067
     32 C          60.5000   86.6983    8.4097 C.ar    1  UNL1       -0.0018
     33 C          59.7037   87.9584    8.5773 C.ar    1  UNL1        0.0006
     34 C          60.2708   89.1055    9.3599 C.ar    1  UNL1        0.0114
     35 C          61.6342   88.9925    9.9751 C.ar    1  UNL1        0.0574
     36 CL         62.2012   90.1396   10.7577 Cl      1  UNL1       -0.0823
     37 C          62.4305   87.7324    9.8075 C.ar    1  UNL1        0.0095
@<TRIPOS>BOND
     1    18    19    1
     2    19    20   ar
     3    20    21   ar
     4    21    22   ar
     5    22     8    1
     6     8     9    2
     7     9    10    1
     8    10    11    1
     9    10    12    2
    10    12    13    1
    11    13    14    2
    12    14     1    1
    13     1     2    1
    14     2    25    1
    15    25    27    1
    16    27    28    1
    17    28    29    1
    18    28    31    1
    19    31    32   ar
    20    32    33   ar
    21    33    34   ar
    22    34    35   ar
    23    35    36    1
    24    35    37   ar
    25     2     3    2
    26     3     4    1
    27     4     5    2
    28     5     6    1
    29     6     7    2
    30    14    15    1
    31    15    16    2
    32    16    17    1
    33    22    23   ar
    34    23    19   ar
    35    17     8    1
    36    16    12    1
    37     6     1    1
    38    37    31   ar
    39    25    26    1
    40    29    30    1
    41    23    24    1
@<TRIPOS>MOLECULE
*****
 37 41 0 0 0
SMALL
GASTEIGER

@<TRIPOS>ATOM
      1 C          63.0668   85.3448   12.9221 C.3     1  UNL1        0.2250
      2 C          63.7340   86.3254   13.8404 C.2     1  UNL1        0.0436
      3 C          64.3382   85.8540   15.1299 C.2     1  UNL1        0.0288
      4 C          64.2752   84.4020   15.5011 C.2     1  UNL1        0.0896
      5 N          63.6081   83.4214   14.5828 N.am    1  UNL1       -0.1770
      6 C          63.0039   83.8928   13.2933 C.2     1  UNL1        0.2627
      7 O          62.3367   82.9122   12.3750 O.2     1  UNL1       -0.2719
      8 C          60.2223   87.9682    7.7617 C.2     1  UNL1        0.0200
      9 C          60.7504   86.7477    7.0681 C.2     1  UNL1       -0.0013
     10 C          61.5378   85.7291    7.8380 C.2     1  UNL1        0.0244
     11 C          62.0659   84.5084    7.1442 C.3     1  UNL1        0.0350
     12 C          61.7970   85.9312    9.3015 C.2     1  UNL1        0.2277
     13 N          62.5348   85.1057   10.3135 N.2     1  UNL1       -0.0345
     14 C          62.4626   85.8161   11.6326 C.2     1  UNL1        0.3649
     15 N          61.6802   87.0807   11.4359 N.2     1  UNL1       -0.0380
     16 C          61.2688   87.1518    9.9952 C.2     1  UNL1        0.2172
     17 C          60.4815   88.1703    9.2253 C.3     1  UNL1        0.1070
     18 C          58.9737   92.1096    4.7334 C.3     1  UNL1        0.0515
     19 C          58.8610   90.8904    5.5999 C.ar    1  UNL1        0.0544
     20 C          57.5858   90.2180    6.0144 C.ar    1  UNL1        0.1130
     21 N          57.9405   89.0415    6.8748 N.ar    1  UNL1       -0.2261
     22 C          59.4349   88.9868    6.9919 C.ar    1  UNL1        0.1368
     23 N          60.0038   90.1294    6.2040 N.ar    1  UNL1       -0.3408
     24 H          60.9595   90.3425    6.1013 H       1  UNL1        0.1671
     25 N          63.7970   87.7774   13.4693 N.pl3   1  UNL1       -0.3329
     26 H          63.6194   88.0566   12.5420 H       1  UNL1        0.1466
     27 C          64.1307   88.8040   14.5108 C.3     1  UNL1        0.1211
     28 C          63.8146   90.2498   14.2670 C.3     1  UNL1        0.1522
     29 O          63.5390   91.1628   15.4248 O.3     1  UNL1       -0.3783
     30 H          63.6052   90.6631   16.2535 H       1  UNL1        0.2109
     31 C          63.7740   90.7827   12.8654 C.ar    1  UNL1        0.0067
     32 C          62.6482   90.4017   11.9504 C.ar    1  UNL1       -0.0018
     33 C          62.6076   90.9346   10.5489 C.ar    1  UNL1        0.0006
     34 C          63.6929   91.8486   10.0623 C.ar    1  UNL1        0.0114
     35 C          64.8187   92.2296   10.9773 C.ar    1  UNL1        0.0574
     36 CL         65.9040   93.1436   10.4907 Cl      1  UNL1       -0.0823
     37 C          64.8593   91.6967   12.3789 C.ar    1  UNL1        0.0095
@<TRIPOS>BOND
     1    18    19    1
     2    19    20   ar
     3    20    21   ar
     4    21    22   ar
     5    22     8    1
     6     8     9    2
     7     9    10    1
     8    10    11    1
     9    10    12    2
    10    12    13    1
    11    13    14    2
    12    14     1    1
    13     1     2    1
    14     2    25    1
    15    25    27    1
    16    27    28    1
    17    28    29    1
    18    28    31    1
    19    31    32   ar
    20    32    33   ar
    21    33    34   ar
    22    34    35   ar
    23    35    36    1
    24    35    37   ar
    25     2     3    2
    26     3     4    1
    27     4     5    2
    28     5     6    1
    29     6     7    2
    30    14    15    1
    31    15    16    2
    32    16    17    1
    33    22    23   ar
    34    23    19   ar
    35    17     8    1
    36    16    12    1
    37     6     1    1
    38    37    31   ar
    39    25    26    1
    40    29    30    1
    41    23    24    1
