@<TRIPOS>MOLECULE
*****
 37 42 0 0 0
SMALL
GASTEIGER

@<TRIPOS>ATOM
      1 O          61.3804   90.6651    5.1665 O.2     1  UNL1       -0.2522
      2 C          59.8994   90.8964    5.2219 C.2     1  UNL1        0.3082
      3 N          59.0867   90.2913    6.3280 N.am    1  UNL1       -0.2681
      4 N          59.2311   91.7328    4.1713 N.am    1  UNL1       -0.2681
      5 H          58.1146   90.4432    6.3644 H       1  UNL1        0.1564
      6 H          58.2591   91.8846    4.2077 H       1  UNL1        0.1564
      7 C          59.7550   89.4549    7.3786 C.ar    1  UNL1        0.0516
      8 C          60.5294   90.1138    8.4813 C.ar    1  UNL1        0.0147
      9 C          61.1978   89.2774    9.5319 C.ar    1  UNL1        0.0013
     10 C          61.0916   87.7821    9.4798 C.ar    1  UNL1        0.0001
     11 C          60.3171   87.1231    8.3771 C.ar    1  UNL1        0.0013
     12 C          59.6488   87.9595    7.3265 C.ar    1  UNL1        0.0147
     13 C          61.7599   86.9457   10.5304 C.ar    1  UNL1        0.0000
     14 C          61.6558   85.4503   10.4770 C.ar    1  UNL1        0.0000
     15 C          62.3241   84.6139   11.5276 C.ar    1  UNL1        0.0000
     16 C          63.0965   85.2729   12.6317 C.ar    1  UNL1        0.0000
     17 C          63.2007   86.7684   12.6852 C.ar    1  UNL1        0.0000
     18 C          63.9731   87.4274   13.7892 C.ar    1  UNL1        0.0000
     19 C          64.0773   88.9227   13.8427 C.ar    1  UNL1        0.0000
     20 C          63.4090   89.7592   12.7921 C.ar    1  UNL1        0.0000
     21 C          62.6365   89.1002   11.6880 C.ar    1  UNL1        0.0000
     22 C          62.5324   87.6048   11.6346 C.ar    1  UNL1        0.0000
     23 C          60.0438   92.3379    3.0652 C.ar    1  UNL1        0.0516
     24 C          61.5373   92.1990    3.0696 C.ar    1  UNL1        0.0147
     25 C          62.3500   92.8041    1.9635 C.ar    1  UNL1        0.0010
     26 C          61.6692   93.5481    0.8531 C.ar    1  UNL1       -0.0014
     27 C          60.1756   93.6870    0.8488 C.ar    1  UNL1        0.0010
     28 C          59.3629   93.0819    1.9549 C.ar    1  UNL1        0.0147
     29 C          62.4819   94.1532   -0.2529 C.2     1  UNL1        0.0158
     30 C          62.2528   93.7255   -1.6724 C.2     1  UNL1        0.0487
     31 C          63.0655   94.3306   -2.7784 C.2     1  UNL1        0.2355
     32 N          64.1072   95.3633   -2.4651 N.2     1  UNL1       -0.0325
     33 C          64.3364   95.7910   -1.0458 C.2     1  UNL1        0.3799
     34 N          65.2853   96.7798   -0.4362 N.2     1  UNL1       -0.0106
     35 C          65.0591   96.7859    1.0467 C.2     1  UNL1        0.3351
     36 N          63.9704   95.8008    1.3535 N.2     1  UNL1       -0.2103
     37 C          63.5237   95.1859    0.0603 C.3     1  UNL1        0.2404
@<TRIPOS>BOND
     1     1     2    2
     2     2     3   am
     3     3     7    1
     4     7     8   ar
     5     8     9   ar
     6     9    10   ar
     7    10    13    1
     8    13    14   ar
     9    14    15   ar
    10    15    16   ar
    11    16    17   ar
    12    17    18   ar
    13    18    19   ar
    14    19    20   ar
    15    20    21   ar
    16    21    22   ar
    17    10    11   ar
    18    11    12   ar
    19     2     4   am
    20     4    23    1
    21    23    24   ar
    22    24    25   ar
    23    25    26   ar
    24    26    29    1
    25    29    30    2
    26    30    31    1
    27    31    32    2
    28    32    33    1
    29    33    34    2
    30    34    35    1
    31    35    36    2
    32    36    37    1
    33    26    27   ar
    34    27    28   ar
    35    12     7   ar
    36    28    23   ar
    37    22    13   ar
    38    37    29    1
    39    22    17   ar
    40    37    33    1
    41     3     5    1
    42     4     6    1
@<TRIPOS>MOLECULE
*****
 37 42 0 0 0
SMALL
GASTEIGER

@<TRIPOS>ATOM
      1 O          64.3357   88.3454   13.4152 O.2     1  UNL1       -0.2522
      2 C          64.1913   88.6401   14.8788 C.2     1  UNL1        0.3082
      3 N          64.4808   90.0170   15.3988 N.am    1  UNL1       -0.2681
      4 N          63.7573   87.5579   15.8226 N.am    1  UNL1       -0.2681
      5 H          64.3860   90.2105   16.3594 H       1  UNL1        0.1564
      6 H          63.6626   87.7514   16.7832 H       1  UNL1        0.1564
      7 C          64.9147   91.0992   14.4551 C.ar    1  UNL1        0.0516
      8 C          64.2256   91.2619   13.1327 C.ar    1  UNL1        0.0147
      9 C          64.6596   92.3440   12.1890 C.ar    1  UNL1        0.0013
     10 C          65.7826   93.2635   12.5676 C.ar    1  UNL1        0.0001
     11 C          66.4717   93.1009   13.8900 C.ar    1  UNL1        0.0013
     12 C          66.0378   92.0187   14.8337 C.ar    1  UNL1        0.0147
     13 C          66.2165   94.3457   11.6238 C.ar    1  UNL1        0.0000
     14 C          65.8313   95.7709   11.8890 C.ar    1  UNL1        0.0000
     15 C          66.2653   96.8531   10.9452 C.ar    1  UNL1        0.0000
     16 C          67.0843   96.5100    9.7364 C.ar    1  UNL1        0.0000
     17 C          67.4695   95.0847    9.4712 C.ar    1  UNL1        0.0000
     18 C          68.2885   94.7416    8.2623 C.ar    1  UNL1        0.0000
     19 C          68.6737   93.3164    7.9972 C.ar    1  UNL1        0.0000
     20 C          68.2398   92.2342    8.9409 C.ar    1  UNL1        0.0000
     21 C          67.4207   92.5773   10.1498 C.ar    1  UNL1        0.0000
     22 C          67.0356   94.0025   10.4149 C.ar    1  UNL1        0.0000
     23 C          63.4678   86.1811   15.3027 C.ar    1  UNL1        0.0516
     24 C          64.2715   85.6246   14.1650 C.ar    1  UNL1        0.0147
     25 C          63.9820   84.2477   13.6451 C.ar    1  UNL1        0.0010
     26 C          62.8888   83.4272   14.2629 C.ar    1  UNL1       -0.0014
     27 C          62.0851   83.9837   15.4006 C.ar    1  UNL1        0.0010
     28 C          62.3746   85.3606   15.9205 C.ar    1  UNL1        0.0147
     29 C          62.5993   82.0503   13.7430 C.2     1  UNL1        0.0158
     30 C          61.9102   81.0471   14.6198 C.2     1  UNL1        0.0487
     31 C          61.6206   79.6702   14.0999 C.2     1  UNL1        0.2355
     32 N          62.0202   79.2965   12.7033 N.2     1  UNL1       -0.0325
     33 C          62.7092   80.2996   11.8265 C.2     1  UNL1        0.3799
     34 N          63.2175   80.2198   10.4175 N.2     1  UNL1       -0.0106
     35 C          63.8211   81.5474   10.0665 C.2     1  UNL1        0.3351
     36 N          63.6860   82.4477   11.2586 N.2     1  UNL1       -0.2103
     37 C          62.9988   81.6766   12.3463 C.3     1  UNL1        0.2404
@<TRIPOS>BOND
     1     1     2    2
     2     2     3   am
     3     3     7    1
     4     7     8   ar
     5     8     9   ar
     6     9    10   ar
     7    10    13    1
     8    13    14   ar
     9    14    15   ar
    10    15    16   ar
    11    16    17   ar
    12    17    18   ar
    13    18    19   ar
    14    19    20   ar
    15    20    21   ar
    16    21    22   ar
    17    10    11   ar
    18    11    12   ar
    19     2     4   am
    20     4    23    1
    21    23    24   ar
    22    24    25   ar
    23    25    26   ar
    24    26    29    1
    25    29    30    2
    26    30    31    1
    27    31    32    2
    28    32    33    1
    29    33    34    2
    30    34    35    1
    31    35    36    2
    32    36    37    1
    33    26    27   ar
    34    27    28   ar
    35    12     7   ar
    36    28    23   ar
    37    22    13   ar
    38    37    29    1
    39    22    17   ar
    40    37    33    1
    41     3     5    1
    42     4     6    1
@<TRIPOS>MOLECULE
*****
 37 42 0 0 0
SMALL
GASTEIGER

@<TRIPOS>ATOM
      1 O          61.3836   90.7227    5.1930 O.2     1  UNL1       -0.2522
      2 C          59.8928   90.8880    5.2034 C.2     1  UNL1        0.3082
      3 N          59.0716   90.2215    6.2672 N.am    1  UNL1       -0.2681
      4 N          59.2230   91.7198    4.1500 N.am    1  UNL1       -0.2681
      5 H          58.0931   90.3300    6.2740 H       1  UNL1        0.1564
      6 H          58.2445   91.8283    4.1568 H       1  UNL1        0.1564
      7 C          59.7414   89.3898    7.3205 C.ar    1  UNL1        0.0516
      8 C          59.6586   87.8933    7.2596 C.ar    1  UNL1        0.0147
      9 C          60.3283   87.0616    8.3129 C.ar    1  UNL1        0.0013
     10 C          61.0808   87.7262    9.4273 C.ar    1  UNL1        0.0001
     11 C          61.1637   89.2228    9.4883 C.ar    1  UNL1        0.0013
     12 C          60.4939   90.0545    8.4349 C.ar    1  UNL1        0.0147
     13 C          61.7506   86.8945   10.4807 C.ar    1  UNL1        0.0000
     14 C          61.6573   85.3984   10.4266 C.ar    1  UNL1        0.0000
     15 C          62.3271   84.5666   11.4800 C.ar    1  UNL1        0.0000
     16 C          63.0901   85.2309   12.5875 C.ar    1  UNL1        0.0000
     17 C          63.1834   86.7271   12.6415 C.ar    1  UNL1        0.0000
     18 C          63.9464   87.3914   13.7490 C.ar    1  UNL1        0.0000
     19 C          64.0397   88.8875   13.8030 C.ar    1  UNL1        0.0000
     20 C          63.3699   89.7193   12.7496 C.ar    1  UNL1        0.0000
     21 C          62.6069   89.0550   11.6422 C.ar    1  UNL1        0.0000
     22 C          62.5136   87.5589   11.5882 C.ar    1  UNL1        0.0000
     23 C          60.0441   92.3862    3.0862 C.ar    1  UNL1        0.0516
     24 C          59.3689   93.1529    1.9879 C.ar    1  UNL1        0.0147
     25 C          60.1899   93.8194    0.9241 C.ar    1  UNL1        0.0010
     26 C          61.6862   93.7192    0.9586 C.ar    1  UNL1       -0.0014
     27 C          62.3614   92.9525    2.0570 C.ar    1  UNL1        0.0010
     28 C          61.5403   92.2861    3.1207 C.ar    1  UNL1        0.0147
     29 C          62.5072   94.3857   -0.1052 C.2     1  UNL1        0.0158
     30 C          63.7707   95.1055    0.2634 C.2     1  UNL1        0.0487
     31 C          64.5917   95.7719   -0.8004 C.2     1  UNL1        0.2355
     32 N          64.1494   95.7187   -2.2327 N.2     1  UNL1       -0.0325
     33 C          62.8861   94.9990   -2.6013 C.2     1  UNL1        0.3799
     34 N          62.2032   94.7804   -3.9188 N.2     1  UNL1       -0.0106
     35 C          60.9601   93.9789   -3.6693 C.2     1  UNL1        0.3351
     36 N          60.8746   93.7020   -2.1976 N.2     1  UNL1       -0.2103
     37 C          62.0649   94.3324   -1.5375 C.3     1  UNL1        0.2404
@<TRIPOS>BOND
     1     1     2    2
     2     2     3   am
     3     3     7    1
     4     7     8   ar
     5     8     9   ar
     6     9    10   ar
     7    10    13    1
     8    13    14   ar
     9    14    15   ar
    10    15    16   ar
    11    16    17   ar
    12    17    18   ar
    13    18    19   ar
    14    19    20   ar
    15    20    21   ar
    16    21    22   ar
    17    10    11   ar
    18    11    12   ar
    19     2     4   am
    20     4    23    1
    21    23    24   ar
    22    24    25   ar
    23    25    26   ar
    24    26    29    1
    25    29    30    2
    26    30    31    1
    27    31    32    2
    28    32    33    1
    29    33    34    2
    30    34    35    1
    31    35    36    2
    32    36    37    1
    33    26    27   ar
    34    27    28   ar
    35    12     7   ar
    36    28    23   ar
    37    22    13   ar
    38    37    29    1
    39    22    17   ar
    40    37    33    1
    41     3     5    1
    42     4     6    1
@<TRIPOS>MOLECULE
*****
 37 42 0 0 0
SMALL
GASTEIGER

@<TRIPOS>ATOM
      1 O          61.4027   90.4955    5.4017 O.2     1  UNL1       -0.2522
      2 C          59.9318   90.7723    5.5002 C.2     1  UNL1        0.3082
      3 N          59.2526   91.6011    4.4505 N.am    1  UNL1       -0.2681
      4 N          59.1400   90.2203    6.6484 N.am    1  UNL1       -0.2681
      5 H          58.2872   91.7828    4.5152 H       1  UNL1        0.1564
      6 H          58.1746   90.4020    6.7130 H       1  UNL1        0.1564
      7 C          60.0444   92.1532    3.3023 C.ar    1  UNL1        0.0516
      8 C          59.3521   92.9146    2.2111 C.ar    1  UNL1        0.0147
      9 C          60.1439   93.4666    1.0629 C.ar    1  UNL1        0.0013
     10 C          61.6280   93.2572    1.0060 C.ar    1  UNL1        0.0001
     11 C          62.3205   92.4957    2.0972 C.ar    1  UNL1        0.0013
     12 C          61.5287   91.9437    3.2454 C.ar    1  UNL1        0.0147
     13 C          62.4198   93.8092   -0.1422 C.ar    1  UNL1        0.0000
     14 C          62.1360   93.3461   -1.5404 C.ar    1  UNL1        0.0000
     15 C          62.9278   93.8982   -2.6886 C.ar    1  UNL1        0.0000
     16 C          64.0035   94.9132   -2.4386 C.ar    1  UNL1        0.0000
     17 C          64.2873   95.3764   -1.0404 C.ar    1  UNL1        0.0000
     18 C          65.3630   96.3915   -0.7904 C.ar    1  UNL1        0.0000
     19 C          65.6468   96.8545    0.6078 C.ar    1  UNL1        0.0000
     20 C          64.8550   96.3025    1.7560 C.ar    1  UNL1        0.0000
     21 C          63.7794   95.2874    1.5060 C.ar    1  UNL1        0.0000
     22 C          63.4955   94.8244    0.1078 C.ar    1  UNL1        0.0000
     23 C          59.8191   89.3915    7.6981 C.ar    1  UNL1        0.0516
     24 C          59.7279   87.8951    7.6473 C.ar    1  UNL1        0.0147
     25 C          60.4070   87.0663    8.6970 C.ar    1  UNL1        0.0010
     26 C          61.1774   87.7338    9.7974 C.ar    1  UNL1       -0.0014
     27 C          61.2686   89.2302    9.8482 C.ar    1  UNL1        0.0010
     28 C          60.5895   90.0590    8.7985 C.ar    1  UNL1        0.0147
     29 C          61.8565   86.9050   10.8471 C.2     1  UNL1        0.0158
     30 C          61.7571   85.4089   10.8019 C.2     1  UNL1        0.0487
     31 C          62.4362   84.5801   11.8516 C.2     1  UNL1        0.2355
     32 N          63.2147   85.2473   12.9465 N.2     1  UNL1       -0.0325
     33 C          63.3142   86.7433   12.9916 C.2     1  UNL1        0.3799
     34 N          64.0062   87.6750   13.9420 N.2     1  UNL1       -0.0106
     35 C          63.7547   89.0796   13.4796 C.2     1  UNL1        0.3351
     36 N          62.9073   89.0161   12.2436 N.2     1  UNL1       -0.2103
     37 C          62.6351   87.5722   11.9419 C.3     1  UNL1        0.2404
@<TRIPOS>BOND
     1     1     2    2
     2     2     3   am
     3     3     7    1
     4     7     8   ar
     5     8     9   ar
     6     9    10   ar
     7    10    13    1
     8    13    14   ar
     9    14    15   ar
    10    15    16   ar
    11    16    17   ar
    12    17    18   ar
    13    18    19   ar
    14    19    20   ar
    15    20    21   ar
    16    21    22   ar
    17    10    11   ar
    18    11    12   ar
    19     2     4   am
    20     4    23    1
    21    23    24   ar
    22    24    25   ar
    23    25    26   ar
    24    26    29    1
    25    29    30    2
    26    30    31    1
    27    31    32    2
    28    32    33    1
    29    33    34    2
    30    34    35    1
    31    35    36    2
    32    36    37    1
    33    26    27   ar
    34    27    28   ar
    35    12     7   ar
    36    28    23   ar
    37    22    13   ar
    38    37    29    1
    39    22    17   ar
    40    37    33    1
    41     3     5    1
    42     4     6    1
@<TRIPOS>MOLECULE
*****
 37 42 0 0 0
SMALL
GASTEIGER

@<TRIPOS>ATOM
      1 O          64.3586   88.4326   13.4402 O.2     1  UNL1       -0.2522
      2 C          64.1948   88.7691   14.8927 C.2     1  UNL1        0.3082
      3 N          63.7374   87.7173   15.8594 N.am    1  UNL1       -0.2681
      4 N          64.4885   90.1575   15.3786 N.am    1  UNL1       -0.2681
      5 H          63.6300   87.9382   16.8128 H       1  UNL1        0.1564
      6 H          64.3810   90.3784   16.3319 H       1  UNL1        0.1564
      7 C          63.4438   86.3289   15.3735 C.ar    1  UNL1        0.0516
      8 C          64.2899   85.7163   14.2971 C.ar    1  UNL1        0.0147
      9 C          63.9962   84.3279   13.8112 C.ar    1  UNL1        0.0013
     10 C          62.8564   83.5521   14.4017 C.ar    1  UNL1        0.0001
     11 C          62.0102   84.1646   15.4782 C.ar    1  UNL1        0.0013
     12 C          62.3039   85.5530   15.9641 C.ar    1  UNL1        0.0147
     13 C          62.5628   82.1637   13.9158 C.ar    1  UNL1        0.0000
     14 C          61.9004   81.1742   14.8281 C.ar    1  UNL1        0.0000
     15 C          61.6067   79.7858   14.3422 C.ar    1  UNL1        0.0000
     16 C          61.9754   79.3869   12.9441 C.ar    1  UNL1        0.0000
     17 C          62.6378   80.3763   12.0317 C.ar    1  UNL1        0.0000
     18 C          63.0065   79.9773   10.6336 C.ar    1  UNL1        0.0000
     19 C          63.6689   80.9668    9.7213 C.ar    1  UNL1        0.0000
     20 C          63.9625   82.3552   10.2072 C.ar    1  UNL1        0.0000
     21 C          63.5939   82.7542   11.6054 C.ar    1  UNL1        0.0000
     22 C          62.9315   81.7647   12.5176 C.ar    1  UNL1        0.0000
     23 C          64.9459   91.2094   14.4119 C.ar    1  UNL1        0.0516
     24 C          66.0265   92.1718   14.8068 C.ar    1  UNL1        0.0147
     25 C          66.4840   93.2237   13.8401 C.ar    1  UNL1        0.0010
     26 C          65.8607   93.3131   12.4787 C.ar    1  UNL1       -0.0014
     27 C          64.7801   92.3506   12.0839 C.ar    1  UNL1        0.0010
     28 C          64.3227   91.2988   13.0505 C.ar    1  UNL1        0.0147
     29 C          66.3181   94.3649   11.5120 C.2     1  UNL1        0.0158
     30 C          65.9678   95.8042   11.7485 C.2     1  UNL1        0.0487
     31 C          66.4252   96.8560   10.7819 C.2     1  UNL1        0.2355
     32 N          67.2329   96.4687    9.5788 N.2     1  UNL1       -0.0325
     33 C          67.5833   95.0295    9.3423 C.2     1  UNL1        0.3799
     34 N          68.3605   94.3515    8.2531 N.2     1  UNL1       -0.0106
     35 C          68.3835   92.8807    8.5466 C.2     1  UNL1        0.3351
     36 N          67.6204   92.6496    9.8171 N.2     1  UNL1       -0.2103
     37 C          67.1259   93.9776   10.3089 C.3     1  UNL1        0.2404
@<TRIPOS>BOND
     1     1     2    2
     2     2     3   am
     3     3     7    1
     4     7     8   ar
     5     8     9   ar
     6     9    10   ar
     7    10    13    1
     8    13    14   ar
     9    14    15   ar
    10    15    16   ar
    11    16    17   ar
    12    17    18   ar
    13    18    19   ar
    14    19    20   ar
    15    20    21   ar
    16    21    22   ar
    17    10    11   ar
    18    11    12   ar
    19     2     4   am
    20     4    23    1
    21    23    24   ar
    22    24    25   ar
    23    25    26   ar
    24    26    29    1
    25    29    30    2
    26    30    31    1
    27    31    32    2
    28    32    33    1
    29    33    34    2
    30    34    35    1
    31    35    36    2
    32    36    37    1
    33    26    27   ar
    34    27    28   ar
    35    12     7   ar
    36    28    23   ar
    37    22    13   ar
    38    37    29    1
    39    22    17   ar
    40    37    33    1
    41     3     5    1
    42     4     6    1
@<TRIPOS>MOLECULE
*****
 37 42 0 0 0
SMALL
GASTEIGER

@<TRIPOS>ATOM
      1 O          61.4180   90.8030    5.2169 O.2     1  UNL1       -0.2522
      2 C          59.9222   90.8981    5.1582 C.2     1  UNL1        0.3082
      3 N          59.2631   91.6854    4.0647 N.am    1  UNL1       -0.2681
      4 N          59.0855   90.2058    6.1929 N.am    1  UNL1       -0.2681
      5 H          58.2813   91.7478    4.0261 H       1  UNL1        0.1564
      6 H          58.1037   90.2682    6.1544 H       1  UNL1        0.1564
      7 C          60.0998   92.3777    3.0299 C.ar    1  UNL1        0.0516
      8 C          59.4485   93.2586    2.0054 C.ar    1  UNL1        0.0147
      9 C          60.2852   93.9509    0.9707 C.ar    1  UNL1        0.0013
     10 C          61.7732   93.7621    0.9605 C.ar    1  UNL1        0.0001
     11 C          62.4246   92.8812    1.9850 C.ar    1  UNL1        0.0013
     12 C          61.5879   92.1889    3.0198 C.ar    1  UNL1        0.0147
     13 C          62.6100   94.4544   -0.0743 C.ar    1  UNL1        0.0000
     14 C          63.8843   95.1371    0.3257 C.ar    1  UNL1        0.0000
     15 C          64.7210   95.8293   -0.7091 C.ar    1  UNL1        0.0000
     16 C          64.2834   95.8389   -2.1438 C.ar    1  UNL1        0.0000
     17 C          63.0090   95.1562   -2.5438 C.ar    1  UNL1        0.0000
     18 C          62.5714   95.1658   -3.9785 C.ar    1  UNL1        0.0000
     19 C          61.2971   94.4831   -4.3784 C.ar    1  UNL1        0.0000
     20 C          60.4604   93.7909   -3.3437 C.ar    1  UNL1        0.0000
     21 C          60.8980   93.7813   -1.9090 C.ar    1  UNL1        0.0000
     22 C          62.1723   94.4640   -1.5090 C.ar    1  UNL1        0.0000
     23 C          59.7446   89.4185    7.2864 C.ar    1  UNL1        0.0516
     24 C          59.7220   87.9192    7.2491 C.ar    1  UNL1        0.0147
     25 C          60.3811   87.1318    8.3426 C.ar    1  UNL1        0.0010
     26 C          61.0627   87.8438    9.4733 C.ar    1  UNL1       -0.0014
     27 C          61.0852   89.3432    9.5105 C.ar    1  UNL1        0.0010
     28 C          60.4262   90.1305    8.4171 C.ar    1  UNL1        0.0147
     29 C          61.7218   87.0565   10.5668 C.2     1  UNL1        0.0158
     30 C          61.6042   85.5612   10.5899 C.2     1  UNL1        0.0487
     31 C          62.2633   84.7739   11.6834 C.2     1  UNL1        0.2355
     32 N          63.0400   85.4817   12.7538 N.2     1  UNL1       -0.0325
     33 C          63.1576   86.9769   12.7307 C.2     1  UNL1        0.3799
     34 N          63.8523   87.9433   13.6436 N.2     1  UNL1       -0.0106
     35 C          63.6226   89.3279   13.1143 C.2     1  UNL1        0.3351
     36 N          62.7859   89.2173   11.8743 N.2     1  UNL1       -0.2103
     37 C          62.4985   87.7643   11.6372 C.3     1  UNL1        0.2404
@<TRIPOS>BOND
     1     1     2    2
     2     2     3   am
     3     3     7    1
     4     7     8   ar
     5     8     9   ar
     6     9    10   ar
     7    10    13    1
     8    13    14   ar
     9    14    15   ar
    10    15    16   ar
    11    16    17   ar
    12    17    18   ar
    13    18    19   ar
    14    19    20   ar
    15    20    21   ar
    16    21    22   ar
    17    10    11   ar
    18    11    12   ar
    19     2     4   am
    20     4    23    1
    21    23    24   ar
    22    24    25   ar
    23    25    26   ar
    24    26    29    1
    25    29    30    2
    26    30    31    1
    27    31    32    2
    28    32    33    1
    29    33    34    2
    30    34    35    1
    31    35    36    2
    32    36    37    1
    33    26    27   ar
    34    27    28   ar
    35    12     7   ar
    36    28    23   ar
    37    22    13   ar
    38    37    29    1
    39    22    17   ar
    40    37    33    1
    41     3     5    1
    42     4     6    1
@<TRIPOS>MOLECULE
*****
 37 42 0 0 0
SMALL
GASTEIGER

@<TRIPOS>ATOM
      1 O          61.1307   89.3254    6.9523 O.2     1  UNL1       -0.2522
      2 C          59.6386   89.2824    7.0992 C.2     1  UNL1        0.3082
      3 N          58.7708   90.0880    6.1782 N.am    1  UNL1       -0.2681
      4 N          59.0141   88.4339    8.1669 N.am    1  UNL1       -0.2681
      5 H          57.7914   90.0598    6.2746 H       1  UNL1        0.1564
      6 H          58.0348   88.4057    8.2633 H       1  UNL1        0.1564
      7 C          59.3952   90.9366    5.1105 C.ar    1  UNL1        0.0516
      8 C          60.8585   90.8052    4.8082 C.ar    1  UNL1        0.0147
      9 C          61.4829   91.6537    3.7405 C.ar    1  UNL1        0.0013
     10 C          60.6441   92.6336    2.9750 C.ar    1  UNL1        0.0001
     11 C          59.1807   92.7651    3.2773 C.ar    1  UNL1        0.0013
     12 C          58.5562   91.9165    4.3450 C.ar    1  UNL1        0.0147
     13 C          61.2685   93.4822    1.9073 C.ar    1  UNL1        0.0000
     14 C          62.4269   94.3749    2.2405 C.ar    1  UNL1        0.0000
     15 C          63.0513   95.2234    1.1728 C.ar    1  UNL1        0.0000
     16 C          62.5174   95.1792   -0.2282 C.ar    1  UNL1        0.0000
     17 C          61.3589   94.2865   -0.5615 C.ar    1  UNL1        0.0000
     18 C          60.8249   94.2423   -1.9625 C.ar    1  UNL1        0.0000
     19 C          59.6665   93.3496   -2.2958 C.ar    1  UNL1        0.0000
     20 C          59.0420   92.5011   -1.2281 C.ar    1  UNL1        0.0000
     21 C          59.5760   92.5453    0.1729 C.ar    1  UNL1        0.0000
     22 C          60.7344   93.4380    0.5062 C.ar    1  UNL1        0.0000
     23 C          59.8819   87.6283    9.0878 C.ar    1  UNL1        0.0516
     24 C          60.0071   88.0168   10.5311 C.ar    1  UNL1        0.0147
     25 C          60.8749   87.2113   11.4521 C.ar    1  UNL1        0.0010
     26 C          61.6173   86.0172   10.9297 C.ar    1  UNL1       -0.0014
     27 C          61.4920   85.6287    9.4862 C.ar    1  UNL1        0.0010
     28 C          60.6243   86.4342    8.5653 C.ar    1  UNL1        0.0147
     29 C          62.4850   85.2116   11.8506 C.2     1  UNL1        0.0158
     30 C          62.5465   83.7195   11.7090 C.2     1  UNL1        0.0487
     31 C          63.4142   82.9139   12.6299 C.2     1  UNL1        0.2355
     32 N          64.2205   83.6004   13.6924 N.2     1  UNL1       -0.0325
     33 C          64.1590   85.0924   13.8339 C.2     1  UNL1        0.3799
     34 N          64.8361   86.0397   14.7795 N.2     1  UNL1       -0.0106
     35 C          64.3869   87.4307   14.4431 C.2     1  UNL1        0.3351
     36 N          63.4321   87.3432   13.2895 N.2     1  UNL1       -0.2103
     37 C          63.2913   85.8980   12.9130 C.3     1  UNL1        0.2404
@<TRIPOS>BOND
     1     1     2    2
     2     2     3   am
     3     3     7    1
     4     7     8   ar
     5     8     9   ar
     6     9    10   ar
     7    10    13    1
     8    13    14   ar
     9    14    15   ar
    10    15    16   ar
    11    16    17   ar
    12    17    18   ar
    13    18    19   ar
    14    19    20   ar
    15    20    21   ar
    16    21    22   ar
    17    10    11   ar
    18    11    12   ar
    19     2     4   am
    20     4    23    1
    21    23    24   ar
    22    24    25   ar
    23    25    26   ar
    24    26    29    1
    25    29    30    2
    26    30    31    1
    27    31    32    2
    28    32    33    1
    29    33    34    2
    30    34    35    1
    31    35    36    2
    32    36    37    1
    33    26    27   ar
    34    27    28   ar
    35    12     7   ar
    36    28    23   ar
    37    22    13   ar
    38    37    29    1
    39    22    17   ar
    40    37    33    1
    41     3     5    1
    42     4     6    1
@<TRIPOS>MOLECULE
*****
 37 42 0 0 0
SMALL
GASTEIGER

@<TRIPOS>ATOM
      1 O          61.0847   89.4545    6.9731 O.2     1  UNL1       -0.2522
      2 C          59.6053   89.2234    7.0620 C.2     1  UNL1        0.3082
      3 N          58.6777   89.9307    6.1189 N.am    1  UNL1       -0.2681
      4 N          59.0534   88.2852    8.0941 N.am    1  UNL1       -0.2681
      5 H          57.7067   89.7790    6.1772 H       1  UNL1        0.1564
      6 H          58.0824   88.1335    8.1524 H       1  UNL1        0.1564
      7 C          59.2296   90.8689    5.0869 C.ar    1  UNL1        0.0516
      8 C          60.7003   90.8788    4.7922 C.ar    1  UNL1        0.0147
      9 C          61.2522   91.8171    3.7602 C.ar    1  UNL1        0.0013
     10 C          60.3333   92.7455    3.0228 C.ar    1  UNL1        0.0001
     11 C          58.8626   92.7357    3.3175 C.ar    1  UNL1        0.0013
     12 C          58.3107   91.7974    4.3495 C.ar    1  UNL1        0.0147
     13 C          60.8852   93.6838    1.9908 C.ar    1  UNL1        0.0000
     14 C          61.8988   94.7176    2.3827 C.ar    1  UNL1        0.0000
     15 C          62.4507   95.6559    1.3507 C.ar    1  UNL1        0.0000
     16 C          61.9890   95.5603   -0.0732 C.ar    1  UNL1        0.0000
     17 C          60.9753   94.5264   -0.4652 C.ar    1  UNL1        0.0000
     18 C          60.5136   94.4308   -1.8891 C.ar    1  UNL1        0.0000
     19 C          59.5000   93.3969   -2.2810 C.ar    1  UNL1        0.0000
     20 C          58.9481   92.4586   -1.2490 C.ar    1  UNL1        0.0000
     21 C          59.4098   92.5542    0.1749 C.ar    1  UNL1        0.0000
     22 C          60.4235   93.5881    0.5668 C.ar    1  UNL1        0.0000
     23 C          59.9809   87.5780    9.0372 C.ar    1  UNL1        0.0516
     24 C          60.8731   86.4833    8.5316 C.ar    1  UNL1        0.0147
     25 C          61.8007   85.7760    9.4748 C.ar    1  UNL1        0.0010
     26 C          61.8360   86.1635   10.9235 C.ar    1  UNL1       -0.0014
     27 C          60.9437   87.2582   11.4290 C.ar    1  UNL1        0.0010
     28 C          60.0162   87.9654   10.4859 C.ar    1  UNL1        0.0147
     29 C          62.7635   85.4563   11.8666 C.2     1  UNL1        0.0158
     30 C          63.1273   86.0898   13.1767 C.2     1  UNL1        0.0487
     31 C          64.0548   85.3826   14.1198 C.2     1  UNL1        0.2355
     32 N          64.6186   84.0419   13.7529 N.2     1  UNL1       -0.0325
     33 C          64.2548   83.4083   12.4429 C.2     1  UNL1        0.3799
     34 N          64.6512   82.1057   11.8135 N.2     1  UNL1       -0.0106
     35 C          63.9686   82.0079   10.4814 C.2     1  UNL1        0.3351
     36 N          63.1504   83.2500   10.2874 N.2     1  UNL1       -0.2103
     37 C          63.3272   84.1155   11.4997 C.3     1  UNL1        0.2404
@<TRIPOS>BOND
     1     1     2    2
     2     2     3   am
     3     3     7    1
     4     7     8   ar
     5     8     9   ar
     6     9    10   ar
     7    10    13    1
     8    13    14   ar
     9    14    15   ar
    10    15    16   ar
    11    16    17   ar
    12    17    18   ar
    13    18    19   ar
    14    19    20   ar
    15    20    21   ar
    16    21    22   ar
    17    10    11   ar
    18    11    12   ar
    19     2     4   am
    20     4    23    1
    21    23    24   ar
    22    24    25   ar
    23    25    26   ar
    24    26    29    1
    25    29    30    2
    26    30    31    1
    27    31    32    2
    28    32    33    1
    29    33    34    2
    30    34    35    1
    31    35    36    2
    32    36    37    1
    33    26    27   ar
    34    27    28   ar
    35    12     7   ar
    36    28    23   ar
    37    22    13   ar
    38    37    29    1
    39    22    17   ar
    40    37    33    1
    41     3     5    1
    42     4     6    1
@<TRIPOS>MOLECULE
*****
 37 42 0 0 0
SMALL
GASTEIGER

@<TRIPOS>ATOM
      1 O          72.2315   76.6888   12.5965 O.2     1  UNL1       -0.2522
      2 C          72.5403   77.5344   13.7963 C.2     1  UNL1        0.3082
      3 N          72.7417   79.0127   13.6403 N.am    1  UNL1       -0.2681
      4 N          72.6479   76.9019   15.1521 N.am    1  UNL1       -0.2681
      5 H          72.9444   79.5677   14.4277 H       1  UNL1        0.1564
      6 H          72.8506   77.4569   15.9396 H       1  UNL1        0.1564
      7 C          72.6341   79.6453   12.2844 C.ar    1  UNL1        0.0516
      8 C          72.0071   78.8884   11.1513 C.ar    1  UNL1        0.0147
      9 C          71.8995   79.5210    9.7955 C.ar    1  UNL1        0.0013
     10 C          72.4190   80.9104    9.5728 C.ar    1  UNL1        0.0001
     11 C          73.0461   81.6673   10.7059 C.ar    1  UNL1        0.0013
     12 C          73.1536   81.0348   12.0617 C.ar    1  UNL1        0.0147
     13 C          72.3114   81.5430    8.2169 C.ar    1  UNL1        0.0000
     14 C          71.7992   82.9464    8.0826 C.ar    1  UNL1        0.0000
     15 C          71.6917   83.5789    6.7267 C.ar    1  UNL1        0.0000
     16 C          72.0963   82.8081    5.5053 C.ar    1  UNL1        0.0000
     17 C          72.6085   81.4046    5.6396 C.ar    1  UNL1        0.0000
     18 C          73.0131   80.6338    4.4181 C.ar    1  UNL1        0.0000
     19 C          73.5253   79.2304    4.5524 C.ar    1  UNL1        0.0000
     20 C          73.6329   78.5978    5.9083 C.ar    1  UNL1        0.0000
     21 C          73.2282   79.3687    7.1298 C.ar    1  UNL1        0.0000
     22 C          72.7161   80.7721    6.9954 C.ar    1  UNL1        0.0000
     23 C          72.4466   75.4237   15.3082 C.ar    1  UNL1        0.0516
     24 C          73.6330   74.5139   15.4290 C.ar    1  UNL1        0.0147
     25 C          73.4317   73.0356   15.5851 C.ar    1  UNL1        0.0010
     26 C          72.0440   72.4672   15.6203 C.ar    1  UNL1       -0.0014
     27 C          70.8576   73.3771   15.4995 C.ar    1  UNL1        0.0010
     28 C          71.0589   74.8553   15.3435 C.ar    1  UNL1        0.0147
     29 C          71.8427   70.9890   15.7764 C.2     1  UNL1        0.0158
     30 C          72.2936   70.2989   17.0296 C.2     1  UNL1        0.0487
     31 C          72.0923   68.8207   17.1857 C.2     1  UNL1        0.2355
     32 N          71.4401   68.0326   16.0886 N.2     1  UNL1       -0.0325
     33 C          70.9892   68.7227   14.8355 C.2     1  UNL1        0.3799
     34 N          70.3213   68.2122   13.5932 N.2     1  UNL1       -0.0106
     35 C          70.1098   69.3748   12.6693 C.2     1  UNL1        0.3351
     36 N          70.6470   70.6040   13.3406 N.2     1  UNL1       -0.2103
     37 C          71.1905   70.2010   14.6793 C.3     1  UNL1        0.2404
@<TRIPOS>BOND
     1     1     2    2
     2     2     3   am
     3     3     7    1
     4     7     8   ar
     5     8     9   ar
     6     9    10   ar
     7    10    13    1
     8    13    14   ar
     9    14    15   ar
    10    15    16   ar
    11    16    17   ar
    12    17    18   ar
    13    18    19   ar
    14    19    20   ar
    15    20    21   ar
    16    21    22   ar
    17    10    11   ar
    18    11    12   ar
    19     2     4   am
    20     4    23    1
    21    23    24   ar
    22    24    25   ar
    23    25    26   ar
    24    26    29    1
    25    29    30    2
    26    30    31    1
    27    31    32    2
    28    32    33    1
    29    33    34    2
    30    34    35    1
    31    35    36    2
    32    36    37    1
    33    26    27   ar
    34    27    28   ar
    35    12     7   ar
    36    28    23   ar
    37    22    13   ar
    38    37    29    1
    39    22    17   ar
    40    37    33    1
    41     3     5    1
    42     4     6    1
