@<TRIPOS>MOLECULE
*****
 37 40 0 0 0
SMALL
GASTEIGER

@<TRIPOS>ATOM
      1 N          63.0365   90.9119   11.8255 N.am    1  UNL1       -0.2438
      2 C          63.4420   91.6184   10.5659 C.3     1  UNL1        0.1009
      3 C          64.6163   92.5516   10.5743 C.3     1  UNL1        0.0662
      4 C          65.3851   92.7784   11.8421 C.3     1  UNL1        0.1600
      5 O          64.9796   92.0720   13.1017 O.3     1  UNL1       -0.4374
      6 C          63.8053   91.1387   13.0934 C.2     1  UNL1        0.4051
      7 O          63.3998   90.4323   14.3529 O.2     1  UNL1       -0.2262
      8 C          66.1498   93.6713   10.9105 C.ar    1  UNL1        0.0140
      9 C          66.9643   93.0757    9.8007 C.ar    1  UNL1        0.0014
     10 C          67.7291   93.9687    8.8690 C.ar    1  UNL1        0.0294
     11 C          67.6793   95.4572    9.0474 C.ar    1  UNL1        0.1401
     12 F          68.4441   96.3501    8.1157 F       1  UNL1       -0.2042
     13 C          66.8648   96.0528   10.1572 C.ar    1  UNL1        0.0294
     14 C          66.1001   95.1599   11.0888 C.ar    1  UNL1        0.0014
     15 C          61.8622   89.9787   11.8172 C.3     1  UNL1        0.1011
     16 C          60.4677   90.5273   11.8841 C.3     1  UNL1        0.0265
     17 C          62.5227   85.5332   11.5912 C.ar    1  UNL1        0.0014
     18 C          63.3299   86.3639   12.5443 C.ar    1  UNL1       -0.0002
     19 C          63.1098   87.8457   12.6196 C.ar    1  UNL1       -0.0027
     20 C          62.0823   88.4969   11.7418 C.ar    1  UNL1       -0.0042
     21 C          61.2751   87.6662   10.7888 C.ar    1  UNL1       -0.0027
     22 C          61.4953   86.1843   10.7135 C.ar    1  UNL1       -0.0002
     23 N          62.5337   81.6888   12.5764 N.ar    1  UNL1       -0.2942
     24 C          62.3136   83.1706   12.6517 C.ar    1  UNL1        0.0783
     25 C          62.7430   84.0513   11.5159 C.ar    1  UNL1        0.0175
     26 C          63.3925   83.4502   10.3049 C.ar    1  UNL1        0.0064
     27 C          63.6127   81.9684   10.2296 C.ar    1  UNL1        0.0608
     28 C          63.1833   81.0877   11.3654 C.ar    1  UNL1        0.2610
     29 O          63.4036   79.6058   11.2901 O.2     1  UNL1       -0.2670
     30 C          60.6636   80.7692   14.1278 C.3     1  UNL1        0.0266
     31 C          62.1043   80.8081   13.7122 C.3     1  UNL1        0.1092
     32 C          66.4195   93.3152   12.7865 C.3     1  UNL1        0.0714
     33 C          67.0609   92.4058   13.7922 C.3     1  UNL1        0.0922
     34 C          66.3428   93.1217   14.8975 C.3     1  UNL1        0.0294
     35 C          67.7791   91.6899   12.6869 C.3     1  UNL1        0.0294
     36 O          67.7024   91.4963   14.7980 O.3     1  UNL1       -0.3866
     37 H          67.4028   91.7367   15.6887 H       1  UNL1        0.2102
@<TRIPOS>BOND
     1    30    31    1
     2    31    23    1
     3    23    24   ar
     4    24    25   ar
     5    25    17    1
     6    17    18   ar
     7    18    19   ar
     8    19    20   ar
     9    20    15    1
    10    15    16    1
    11    15     1    1
    12     1     2    1
    13     2     3    1
    14     3     4    1
    15     4    32    1
    16    32    33    1
    17    33    34    1
    18    33    35    1
    19    33    36    1
    20     4     8    1
    21     8     9   ar
    22     9    10   ar
    23    10    11   ar
    24    11    12    1
    25    11    13   ar
    26    13    14   ar
    27     4     5    1
    28     5     6    1
    29     6     7    2
    30    20    21   ar
    31    21    22   ar
    32    25    26   ar
    33    26    27   ar
    34    27    28   ar
    35    28    29    2
    36    28    23   ar
    37    22    17   ar
    38     6     1   am
    39    14     8   ar
    40    36    37    1
@<TRIPOS>MOLECULE
*****
 37 40 0 0 0
SMALL
GASTEIGER

@<TRIPOS>ATOM
      1 N          63.4144   90.5507   11.9290 N.am    1  UNL1       -0.2438
      2 C          64.1335   90.3581   13.2313 C.3     1  UNL1        0.1009
      3 C          65.3308   91.2004   13.5586 C.3     1  UNL1        0.0662
      4 C          65.8090   92.2352   12.5837 C.3     1  UNL1        0.1600
      5 O          65.0899   92.4278   11.2815 O.3     1  UNL1       -0.4374
      6 C          63.8926   91.5855   10.9541 C.2     1  UNL1        0.4051
      7 O          63.1736   91.7781    9.6519 O.2     1  UNL1       -0.2262
      8 C          66.8155   92.4248   13.6795 C.ar    1  UNL1        0.0140
      9 C          66.4178   93.1111   14.9526 C.ar    1  UNL1        0.0014
     10 C          67.4245   93.3008   16.0485 C.ar    1  UNL1        0.0294
     11 C          68.8287   92.8041   15.8712 C.ar    1  UNL1        0.1401
     12 F          69.8353   92.9938   16.9671 F       1  UNL1       -0.2042
     13 C          69.2263   92.1178   14.5981 C.ar    1  UNL1        0.0294
     14 C          68.2198   91.9282   13.5023 C.ar    1  UNL1        0.0014
     15 C          62.2171   89.7085   11.6017 C.3     1  UNL1        0.1011
     16 C          60.9002   90.3612   11.3022 C.3     1  UNL1        0.0265
     17 C          62.5761   85.2236   11.5185 C.ar    1  UNL1        0.0014
     18 C          63.2396   86.0090   12.6108 C.ar    1  UNL1       -0.0002
     19 C          63.1199   87.5039   12.6385 C.ar    1  UNL1       -0.0027
     20 C          62.3368   88.2135   11.5740 C.ar    1  UNL1       -0.0042
     21 C          61.6733   87.4282   10.4817 C.ar    1  UNL1       -0.0027
     22 C          61.7930   85.9331   10.4540 C.ar    1  UNL1       -0.0002
     23 N          62.3281   81.4206   12.6257 N.ar    1  UNL1       -0.2942
     24 C          62.2085   82.9155   12.6534 C.ar    1  UNL1        0.0783
     25 C          62.6958   83.7286   11.4908 C.ar    1  UNL1        0.0175
     26 C          63.3028   83.0467   10.3007 C.ar    1  UNL1        0.0064
     27 C          63.4225   81.5518   10.2730 C.ar    1  UNL1        0.0608
     28 C          62.9351   80.7387   11.4355 C.ar    1  UNL1        0.2610
     29 O          63.0548   79.2437   11.4078 O.2     1  UNL1       -0.2670
     30 C          60.3942   80.6542   14.1822 C.3     1  UNL1        0.0266
     31 C          61.8408   80.6075   13.7882 C.3     1  UNL1        0.1092
     32 C          66.6367   93.3358   11.9894 C.3     1  UNL1        0.0714
     33 C          66.5607   93.6209   10.5187 C.3     1  UNL1        0.0922
     34 C          65.7517   94.8525   10.7992 C.3     1  UNL1        0.0294
     35 C          67.3698   92.3894   10.2380 C.3     1  UNL1        0.0294
     36 O          66.4847   93.9061    9.0479 O.3     1  UNL1       -0.3866
     37 H          65.9751   94.7184    8.9019 H       1  UNL1        0.2102
@<TRIPOS>BOND
     1    30    31    1
     2    31    23    1
     3    23    24   ar
     4    24    25   ar
     5    25    17    1
     6    17    18   ar
     7    18    19   ar
     8    19    20   ar
     9    20    15    1
    10    15    16    1
    11    15     1    1
    12     1     2    1
    13     2     3    1
    14     3     4    1
    15     4    32    1
    16    32    33    1
    17    33    34    1
    18    33    35    1
    19    33    36    1
    20     4     8    1
    21     8     9   ar
    22     9    10   ar
    23    10    11   ar
    24    11    12    1
    25    11    13   ar
    26    13    14   ar
    27     4     5    1
    28     5     6    1
    29     6     7    2
    30    20    21   ar
    31    21    22   ar
    32    25    26   ar
    33    26    27   ar
    34    27    28   ar
    35    28    29    2
    36    28    23   ar
    37    22    17   ar
    38     6     1   am
    39    14     8   ar
    40    36    37    1
@<TRIPOS>MOLECULE
*****
 37 40 0 0 0
SMALL
GASTEIGER

@<TRIPOS>ATOM
      1 N          62.0715   87.1988   11.9747 N.am    1  UNL1       -0.2438
      2 C          61.6292   85.9982   11.1918 C.3     1  UNL1        0.1009
      3 C          62.1759   84.6419   11.5258 C.3     1  UNL1        0.0662
      4 C          63.1648   84.4862   12.6428 C.3     1  UNL1        0.1600
      5 O          63.6071   85.6867   13.4258 O.3     1  UNL1       -0.4374
      6 C          63.0604   87.0431   13.0918 C.2     1  UNL1        0.4051
      7 O          63.5027   88.2436   13.8747 O.2     1  UNL1       -0.2262
      8 C          63.0525   83.0595   12.1936 C.ar    1  UNL1        0.0140
      9 C          63.5748   82.6537   10.8473 C.ar    1  UNL1        0.0014
     10 C          63.4624   81.2269   10.3981 C.ar    1  UNL1        0.0294
     11 C          62.8277   80.2060   11.2952 C.ar    1  UNL1        0.1401
     12 F          62.7153   78.7792   10.8460 F       1  UNL1       -0.2042
     13 C          62.3054   80.6117   12.6415 C.ar    1  UNL1        0.0294
     14 C          62.4178   82.0385   13.0907 C.ar    1  UNL1        0.0014
     15 C          61.5248   88.5551   11.6407 C.3     1  UNL1        0.1011
     16 C          60.0418   88.7710   11.5767 C.3     1  UNL1        0.0265
     17 C          64.3338   91.9760   10.8305 C.ar    1  UNL1        0.0014
     18 C          64.1964   91.4317   12.2214 C.ar    1  UNL1       -0.0002
     19 C          63.2601   90.2914   12.4915 C.ar    1  UNL1       -0.0027
     20 C          62.4611   89.6954   11.3706 C.ar    1  UNL1       -0.0042
     21 C          62.5985   90.2397    9.9796 C.ar    1  UNL1       -0.0027
     22 C          63.5348   91.3800    9.7096 C.ar    1  UNL1       -0.0002
     23 N          67.5326   93.9998    9.6379 N.ar    1  UNL1       -0.2942
     24 C          66.5962   92.8596    9.9079 C.ar    1  UNL1        0.0783
     25 C          65.2702   93.1164   10.5604 C.ar    1  UNL1        0.0175
     26 C          64.8805   94.5135   10.9428 C.ar    1  UNL1        0.0064
     27 C          65.8169   95.6537   10.6727 C.ar    1  UNL1        0.0608
     28 C          67.1429   95.3969   10.0203 C.ar    1  UNL1        0.2610
     29 O          68.0793   96.5373    9.7502 O.2     1  UNL1       -0.2670
     30 C          69.2687   92.3405    8.6467 C.3     1  UNL1        0.0266
     31 C          68.8586   93.7430    8.9854 C.3     1  UNL1        0.1092
     32 C          64.1147   83.8350   13.6038 C.3     1  UNL1        0.0714
     33 C          64.3689   84.4571   14.9448 C.3     1  UNL1        0.0922
     34 C          65.7570   84.8246   14.5112 C.3     1  UNL1        0.0294
     35 C          62.9808   84.0896   15.3785 C.3     1  UNL1        0.0294
     36 O          64.6231   85.0793   16.2859 O.3     1  UNL1       -0.3866
     37 H          65.5242   85.4375   16.3106 H       1  UNL1        0.2102
@<TRIPOS>BOND
     1    30    31    1
     2    31    23    1
     3    23    24   ar
     4    24    25   ar
     5    25    17    1
     6    17    18   ar
     7    18    19   ar
     8    19    20   ar
     9    20    15    1
    10    15    16    1
    11    15     1    1
    12     1     2    1
    13     2     3    1
    14     3     4    1
    15     4    32    1
    16    32    33    1
    17    33    34    1
    18    33    35    1
    19    33    36    1
    20     4     8    1
    21     8     9   ar
    22     9    10   ar
    23    10    11   ar
    24    11    12    1
    25    11    13   ar
    26    13    14   ar
    27     4     5    1
    28     5     6    1
    29     6     7    2
    30    20    21   ar
    31    21    22   ar
    32    25    26   ar
    33    26    27   ar
    34    27    28   ar
    35    28    29    2
    36    28    23   ar
    37    22    17   ar
    38     6     1   am
    39    14     8   ar
    40    36    37    1
