@<TRIPOS>MOLECULE
*****
 37 40 0 0 0
SMALL
GASTEIGER

@<TRIPOS>ATOM
      1 N          61.5298   92.9374    2.0117 N.pl3   1  UNL1       -0.2780
      2 C          60.0725   93.1991    2.2519 C.3     1  UNL1        0.0941
      3 C          59.3646   92.5164    3.3845 C.3     1  UNL1        0.0306
      4 C          60.1141   91.5719    4.2769 C.3     1  UNL1        0.0799
      5 C          61.5714   91.3102    4.0366 C.3     1  UNL1        0.0306
      6 C          62.2793   91.9930    2.9040 C.3     1  UNL1        0.0941
      7 C          64.2939   94.9212   -0.0314 C.ar    1  UNL1        0.2217
      8 N          63.5861   94.2385    1.1012 N.ar    1  UNL1       -0.1808
      9 C          62.2376   93.6202    0.8790 C.ar    1  UNL1        0.2249
     10 N          61.5970   93.6847   -0.4757 N.ar    1  UNL1       -0.1807
     11 C          62.3048   94.3675   -1.6083 C.ar    1  UNL1        0.2250
     12 N          63.6533   94.9857   -1.3861 N.ar    1  UNL1       -0.1808
     13 N          61.6642   94.4320   -2.9631 N.pl3   1  UNL1       -0.2752
     14 C          62.5185   94.4973   -4.1944 C.3     1  UNL1        0.1109
     15 C          61.8778   94.5618   -5.5492 C.3     1  UNL1        0.0939
     16 N          60.3829   94.5610   -5.6727 N.3     1  UNL1       -0.2686
     17 C          59.7423   94.6255   -7.0275 C.3     1  UNL1        0.0897
     18 C          59.5286   94.4957   -4.4414 C.3     1  UNL1        0.0939
     19 C          60.1693   94.4311   -3.0867 C.3     1  UNL1        0.1109
     20 C          66.0345   96.7751   -0.5638 C.3     1  UNL1        0.1108
     21 N          65.6424   95.5395    0.1908 N.pl3   1  UNL1       -0.3012
     22 H          66.2701   95.1343    0.8319 H       1  UNL1        0.1497
     23 C          59.4063   90.8892    5.4095 C.2     1  UNL1        0.2223
     24 O          57.9448   91.1372    5.6389 O.2     1  UNL1       -0.2751
     25 N          60.1598   89.9584    6.3127 N.am    1  UNL1       -0.3004
     26 H          61.1190   89.7956    6.1621 H       1  UNL1        0.1497
     27 C          59.4520   89.2757    7.4453 C.3     1  UNL1        0.1163
     28 C          60.1922   88.9608    8.7114 C.ar    1  UNL1        0.0013
     29 C          60.5936   90.0678    9.6406 C.ar    1  UNL1       -0.0027
     30 C          61.3338   89.7529   10.9067 C.ar    1  UNL1       -0.0003
     31 C          61.6725   88.3310   11.2436 C.ar    1  UNL1       -0.0001
     32 C          61.2711   87.2240   10.3143 C.ar    1  UNL1        0.0036
     33 C          60.5309   87.5389    9.0482 C.ar    1  UNL1        0.0691
     34 C          60.1295   86.4319    8.1191 C.3     1  UNL1        0.4183
     35 F          59.7281   85.3249    7.1899 F       1  UNL1       -0.1659
     36 F          61.5712   86.1931    7.7808 F       1  UNL1       -0.1659
     37 F          58.6879   86.6707    8.4574 F       1  UNL1       -0.1659
@<TRIPOS>BOND
     1    20    21    1
     2    21     7    1
     3     7     8   ar
     4     8     9   ar
     5     9     1    1
     6     1     2    1
     7     2     3    1
     8     3     4    1
     9     4    23    1
    10    23    24    2
    11    23    25   am
    12    25    27    1
    13    27    28    1
    14    28    29   ar
    15    29    30   ar
    16    30    31   ar
    17    31    32   ar
    18    32    33   ar
    19    33    34    1
    20    34    35    1
    21    34    36    1
    22    34    37    1
    23     4     5    1
    24     5     6    1
    25     9    10   ar
    26    10    11   ar
    27    11    13    1
    28    13    14    1
    29    14    15    1
    30    15    16    1
    31    16    17    1
    32    16    18    1
    33    18    19    1
    34    11    12   ar
    35    12     7   ar
    36     6     1    1
    37    19    13    1
    38    33    28   ar
    39    21    22    1
    40    25    26    1
@<TRIPOS>MOLECULE
*****
 37 40 0 0 0
SMALL
GASTEIGER

@<TRIPOS>ATOM
      1 N          64.7128   89.9442   13.4040 N.pl3   1  UNL1       -0.2780
      2 C          63.7932   89.6196   12.2644 C.3     1  UNL1        0.0941
      3 C          63.1441   88.2696   12.1855 C.3     1  UNL1        0.0306
      4 C          63.4148   87.2441   13.2463 C.3     1  UNL1        0.0799
      5 C          64.3344   87.5688   14.3860 C.3     1  UNL1        0.0306
      6 C          64.9835   88.9188   14.4648 C.3     1  UNL1        0.0941
      7 C          66.5283   93.1521   14.8749 C.ar    1  UNL1        0.2217
      8 N          65.8793   91.8021   14.7960 N.ar    1  UNL1       -0.1808
      9 C          65.3619   91.2943   13.4829 C.ar    1  UNL1        0.2249
     10 N          65.4934   92.1364   12.2486 N.ar    1  UNL1       -0.1807
     11 C          66.1425   93.4864   12.3275 C.ar    1  UNL1        0.2250
     12 N          66.6599   93.9942   13.6407 N.ar    1  UNL1       -0.1808
     13 N          66.2741   94.3286   11.0932 N.pl3   1  UNL1       -0.2752
     14 C          66.9329   93.7666    9.8685 C.3     1  UNL1        0.1109
     15 C          67.0646   94.6088    8.6342 C.3     1  UNL1        0.0939
     16 N          66.5373   96.0131    8.6247 N.3     1  UNL1       -0.2686
     17 C          66.6689   96.8553    7.3905 C.3     1  UNL1        0.0897
     18 C          65.8784   96.5751    9.8495 C.3     1  UNL1        0.0939
     19 C          65.7468   95.7329   11.0837 C.3     1  UNL1        0.1109
     20 C          68.5167   93.8828   16.3790 C.3     1  UNL1        0.1108
     21 N          67.0457   93.6599   16.1881 N.pl3   1  UNL1       -0.3012
     22 H          66.4199   93.8470   16.9246 H       1  UNL1        0.1497
     23 C          62.7657   85.8942   13.1674 C.2     1  UNL1        0.2223
     24 O          61.5338   85.7019   12.3335 O.2     1  UNL1       -0.2751
     25 N          63.3486   84.7365   13.9224 N.am    1  UNL1       -0.3004
     26 H          64.1572   84.8627   14.4697 H       1  UNL1        0.1497
     27 C          62.6996   83.3865   13.8435 C.3     1  UNL1        0.1163
     28 C          62.9279   82.5134   12.6453 C.ar    1  UNL1        0.0013
     29 C          63.6970   83.0392   11.4698 C.ar    1  UNL1       -0.0027
     30 C          63.9253   82.1661   10.2716 C.ar    1  UNL1       -0.0003
     31 C          63.3845   80.7672   10.2490 C.ar    1  UNL1       -0.0001
     32 C          62.6153   80.2413   11.4246 C.ar    1  UNL1        0.0036
     33 C          62.3870   81.1144   12.6228 C.ar    1  UNL1        0.0691
     34 C          61.6179   80.5886   13.7983 C.3     1  UNL1        0.4183
     35 F          60.8488   80.0628   14.9738 F       1  UNL1       -0.1659
     36 F          62.7814   79.7181   14.1702 F       1  UNL1       -0.1659
     37 F          60.4543   81.4591   13.4264 F       1  UNL1       -0.1659
@<TRIPOS>BOND
     1    20    21    1
     2    21     7    1
     3     7     8   ar
     4     8     9   ar
     5     9     1    1
     6     1     2    1
     7     2     3    1
     8     3     4    1
     9     4    23    1
    10    23    24    2
    11    23    25   am
    12    25    27    1
    13    27    28    1
    14    28    29   ar
    15    29    30   ar
    16    30    31   ar
    17    31    32   ar
    18    32    33   ar
    19    33    34    1
    20    34    35    1
    21    34    36    1
    22    34    37    1
    23     4     5    1
    24     5     6    1
    25     9    10   ar
    26    10    11   ar
    27    11    13    1
    28    13    14    1
    29    14    15    1
    30    15    16    1
    31    16    17    1
    32    16    18    1
    33    18    19    1
    34    11    12   ar
    35    12     7   ar
    36     6     1    1
    37    19    13    1
    38    33    28   ar
    39    21    22    1
    40    25    26    1
@<TRIPOS>MOLECULE
*****
 37 40 0 0 0
SMALL
GASTEIGER

@<TRIPOS>ATOM
      1 N          61.2800   92.9475    2.4360 N.pl3   1  UNL1       -0.2780
      2 C          62.0595   91.9724    3.2677 C.3     1  UNL1        0.0941
      3 C          61.3704   91.1838    4.3416 C.3     1  UNL1        0.0306
      4 C          59.9019   91.3703    4.5839 C.3     1  UNL1        0.0799
      5 C          59.1224   92.3455    3.7522 C.3     1  UNL1        0.0306
      6 C          59.8116   93.1341    2.6783 C.3     1  UNL1        0.0941
      7 C          63.8851   95.3237    0.6146 C.ar    1  UNL1        0.2217
      8 N          63.1960   94.5351    1.6885 N.ar    1  UNL1       -0.1808
      9 C          61.9692   93.7362    1.3621 C.ar    1  UNL1        0.2249
     10 N          61.4315   93.7258   -0.0381 N.ar    1  UNL1       -0.1807
     11 C          62.1206   94.5144   -1.1120 C.ar    1  UNL1        0.2250
     12 N          63.3474   95.3133   -0.7856 N.ar    1  UNL1       -0.1808
     13 N          61.5829   94.5040   -2.5123 N.pl3   1  UNL1       -0.2752
     14 C          62.5265   94.5204   -3.6782 C.3     1  UNL1        0.1109
     15 C          61.9887   94.5101   -5.0785 C.3     1  UNL1        0.0939
     16 N          60.5074   94.4834   -5.3129 N.3     1  UNL1       -0.2686
     17 C          59.9697   94.4730   -6.7131 C.3     1  UNL1        0.0897
     18 C          59.5638   94.4670   -4.1469 C.3     1  UNL1        0.0939
     19 C          60.1015   94.4774   -2.7467 C.3     1  UNL1        0.1109
     20 C          65.2922   96.6920    2.3170 C.3     1  UNL1        0.1108
     21 N          65.1120   96.1226    0.9410 N.pl3   1  UNL1       -0.3012
     22 H          65.7990   96.2734    0.2521 H       1  UNL1        0.1497
     23 C          59.2128   90.5818    5.6578 C.2     1  UNL1        0.2223
     24 O          57.7151   90.5762    5.7402 O.2     1  UNL1       -0.2751
     25 N          60.0215   89.7988    6.6492 N.am    1  UNL1       -0.3004
     26 H          61.0045   89.8024    6.5951 H       1  UNL1        0.1497
     27 C          59.3324   89.0102    7.7231 C.3     1  UNL1        0.1163
     28 C          60.0961   87.9851    8.5080 C.ar    1  UNL1        0.0013
     29 C          60.3701   86.6359    7.9127 C.ar    1  UNL1       -0.0027
     30 C          61.1338   85.6108    8.6976 C.ar    1  UNL1       -0.0003
     31 C          61.6235   85.9350   10.0778 C.ar    1  UNL1       -0.0001
     32 C          61.3496   87.2843   10.6732 C.ar    1  UNL1        0.0036
     33 C          60.5859   88.3094    9.8883 C.ar    1  UNL1        0.0691
     34 C          60.3119   89.6586   10.4836 C.3     1  UNL1        0.4183
     35 F          60.0380   91.0079   11.0789 F       1  UNL1       -0.1659
     36 F          61.4133   90.2485    9.6535 F       1  UNL1       -0.1659
     37 F          59.2106   89.0688   11.3137 F       1  UNL1       -0.1659
@<TRIPOS>BOND
     1    20    21    1
     2    21     7    1
     3     7     8   ar
     4     8     9   ar
     5     9     1    1
     6     1     2    1
     7     2     3    1
     8     3     4    1
     9     4    23    1
    10    23    24    2
    11    23    25   am
    12    25    27    1
    13    27    28    1
    14    28    29   ar
    15    29    30   ar
    16    30    31   ar
    17    31    32   ar
    18    32    33   ar
    19    33    34    1
    20    34    35    1
    21    34    36    1
    22    34    37    1
    23     4     5    1
    24     5     6    1
    25     9    10   ar
    26    10    11   ar
    27    11    13    1
    28    13    14    1
    29    14    15    1
    30    15    16    1
    31    16    17    1
    32    16    18    1
    33    18    19    1
    34    11    12   ar
    35    12     7   ar
    36     6     1    1
    37    19    13    1
    38    33    28   ar
    39    21    22    1
    40    25    26    1
@<TRIPOS>MOLECULE
*****
 37 40 0 0 0
SMALL
GASTEIGER

@<TRIPOS>ATOM
      1 N          59.7323   92.2992    3.4228 N.pl3   1  UNL1       -0.2780
      2 C          60.9895   91.6670    3.9422 C.3     1  UNL1        0.0941
      3 C          60.9345   90.7567    5.1331 C.3     1  UNL1        0.0306
      4 C          59.6224   90.4786    5.8047 C.3     1  UNL1        0.0799
      5 C          58.3652   91.1108    5.2853 C.3     1  UNL1        0.0306
      6 C          58.4202   92.0212    4.0943 C.3     1  UNL1        0.0941
      7 C          60.6733   95.3678    1.0886 C.ar    1  UNL1        0.2217
      8 N          60.6182   94.4575    2.2795 N.ar    1  UNL1       -0.1808
      9 C          59.7873   93.2095    2.2319 C.ar    1  UNL1        0.2249
     10 N          59.0114   92.8720    0.9934 N.ar    1  UNL1       -0.1807
     11 C          59.0664   93.7823   -0.1975 C.ar    1  UNL1        0.2250
     12 N          59.8973   95.0302   -0.1499 N.ar    1  UNL1       -0.1808
     13 N          58.2904   93.4447   -1.4361 N.pl3   1  UNL1       -0.2752
     14 C          58.9548   93.5127   -2.7792 C.3     1  UNL1        0.1109
     15 C          58.1789   93.1752   -4.0178 C.3     1  UNL1        0.0939
     16 N          56.7385   92.7696   -3.9132 N.3     1  UNL1       -0.2686
     17 C          55.9626   92.4320   -5.1517 C.3     1  UNL1        0.0897
     18 C          56.0742   92.7016   -2.5700 C.3     1  UNL1        0.0939
     19 C          56.8501   93.0391   -1.3315 C.3     1  UNL1        0.1109
     20 C          62.5580   96.8551    0.0960 C.3     1  UNL1        0.1108
     21 N          61.5042   96.6157    1.1362 N.pl3   1  UNL1       -0.3012
     22 H          61.3579   97.2775    1.8502 H       1  UNL1        0.1497
     23 C          59.5674   89.5683    6.9956 C.2     1  UNL1        0.2223
     24 O          58.6376   88.3913    6.9976 O.2     1  UNL1       -0.2751
     25 N          60.4423   89.8350    8.1845 N.am    1  UNL1       -0.3004
     26 H          61.0525   90.6076    8.1832 H       1  UNL1        0.1497
     27 C          60.3873   88.9247    9.3754 C.3     1  UNL1        0.1163
     28 C          61.3896   89.0751   10.4813 C.ar    1  UNL1        0.0013
     29 C          61.6716   90.4305   11.0587 C.ar    1  UNL1       -0.0027
     30 C          62.6738   90.5809   12.1645 C.ar    1  UNL1       -0.0003
     31 C          63.3940   89.3759   12.6930 C.ar    1  UNL1       -0.0001
     32 C          63.1120   88.0205   12.1156 C.ar    1  UNL1        0.0036
     33 C          62.1098   87.8701   11.0097 C.ar    1  UNL1        0.0691
     34 C          61.8278   86.5147   10.4323 C.3     1  UNL1        0.4183
     35 F          61.5458   85.1594    9.8549 F       1  UNL1       -0.1659
     36 F          62.7507   86.8104    9.2875 F       1  UNL1       -0.1659
     37 F          60.9048   86.2190   11.5772 F       1  UNL1       -0.1659
@<TRIPOS>BOND
     1    20    21    1
     2    21     7    1
     3     7     8   ar
     4     8     9   ar
     5     9     1    1
     6     1     2    1
     7     2     3    1
     8     3     4    1
     9     4    23    1
    10    23    24    2
    11    23    25   am
    12    25    27    1
    13    27    28    1
    14    28    29   ar
    15    29    30   ar
    16    30    31   ar
    17    31    32   ar
    18    32    33   ar
    19    33    34    1
    20    34    35    1
    21    34    36    1
    22    34    37    1
    23     4     5    1
    24     5     6    1
    25     9    10   ar
    26    10    11   ar
    27    11    13    1
    28    13    14    1
    29    14    15    1
    30    15    16    1
    31    16    17    1
    32    16    18    1
    33    18    19    1
    34    11    12   ar
    35    12     7   ar
    36     6     1    1
    37    19    13    1
    38    33    28   ar
    39    21    22    1
    40    25    26    1
@<TRIPOS>MOLECULE
*****
 37 40 0 0 0
SMALL
GASTEIGER

@<TRIPOS>ATOM
      1 N          64.8166   90.1823   13.6394 N.pl3   1  UNL1       -0.2780
      2 C          63.9123   89.7713   12.5154 C.3     1  UNL1        0.0941
      3 C          63.2181   88.4423   12.5589 C.3     1  UNL1        0.0306
      4 C          63.4283   87.5243   13.7265 C.3     1  UNL1        0.0799
      5 C          64.3326   87.9352   14.8504 C.3     1  UNL1        0.0306
      6 C          65.0268   89.2643   14.8069 C.3     1  UNL1        0.0941
      7 C          66.8875   93.3704   14.7783 C.ar    1  UNL1        0.2217
      8 N          66.1934   92.0414   14.8218 N.ar    1  UNL1       -0.1808
      9 C          65.5108   91.5113   13.5958 C.ar    1  UNL1        0.2249
     10 N          65.5224   92.3101   12.3263 N.ar    1  UNL1       -0.1807
     11 C          66.2166   93.6391   12.2828 C.ar    1  UNL1        0.2250
     12 N          66.8992   94.1692   13.5087 N.ar    1  UNL1       -0.1808
     13 N          66.2282   94.4380   11.0132 N.pl3   1  UNL1       -0.2752
     14 C          65.4965   95.7455   10.9431 C.3     1  UNL1        0.1109
     15 C          65.5081   96.5444    9.6735 C.3     1  UNL1        0.0939
     16 N          66.2515   96.0357    8.4741 N.3     1  UNL1       -0.2686
     17 C          66.2632   96.8345    7.2046 C.3     1  UNL1        0.0897
     18 C          66.9833   94.7281    8.5443 C.3     1  UNL1        0.0939
     19 C          66.9716   93.9293    9.8138 C.3     1  UNL1        0.1109
     20 C          69.0603   94.0713   16.0184 C.3     1  UNL1        0.1108
     21 N          67.5701   93.9006   16.0043 N.pl3   1  UNL1       -0.3012
     22 H          67.0400   94.1365   16.7996 H       1  UNL1        0.1497
     23 C          62.7341   86.1953   13.7700 C.2     1  UNL1        0.2223
     24 O          62.0027   85.6913   12.5613 O.2     1  UNL1       -0.2751
     25 N          62.7713   85.3703   15.0222 N.am    1  UNL1       -0.3004
     26 H          63.2514   85.7011   15.8155 H       1  UNL1        0.1497
     27 C          62.0772   84.0414   15.0658 C.3     1  UNL1        0.1163
     28 C          62.5461   82.9211   14.1854 C.ar    1  UNL1        0.0013
     29 C          61.5870   81.8486   13.7615 C.ar    1  UNL1       -0.0027
     30 C          62.0559   80.7283   12.8811 C.ar    1  UNL1       -0.0003
     31 C          63.4839   80.6805   12.4246 C.ar    1  UNL1       -0.0001
     32 C          64.4431   81.7530   12.8485 C.ar    1  UNL1        0.0036
     33 C          63.9742   82.8733   13.7289 C.ar    1  UNL1        0.0691
     34 C          64.9333   83.9458   14.1528 C.3     1  UNL1        0.4183
     35 F          65.8924   85.0183   14.5768 F       1  UNL1       -0.1659
     36 F          64.9570   84.4788   12.7510 F       1  UNL1       -0.1659
     37 F          64.9097   83.4129   15.5547 F       1  UNL1       -0.1659
@<TRIPOS>BOND
     1    20    21    1
     2    21     7    1
     3     7     8   ar
     4     8     9   ar
     5     9     1    1
     6     1     2    1
     7     2     3    1
     8     3     4    1
     9     4    23    1
    10    23    24    2
    11    23    25   am
    12    25    27    1
    13    27    28    1
    14    28    29   ar
    15    29    30   ar
    16    30    31   ar
    17    31    32   ar
    18    32    33   ar
    19    33    34    1
    20    34    35    1
    21    34    36    1
    22    34    37    1
    23     4     5    1
    24     5     6    1
    25     9    10   ar
    26    10    11   ar
    27    11    13    1
    28    13    14    1
    29    14    15    1
    30    15    16    1
    31    16    17    1
    32    16    18    1
    33    18    19    1
    34    11    12   ar
    35    12     7   ar
    36     6     1    1
    37    19    13    1
    38    33    28   ar
    39    21    22    1
    40    25    26    1
@<TRIPOS>MOLECULE
*****
 37 40 0 0 0
SMALL
GASTEIGER

@<TRIPOS>ATOM
      1 N          60.4597   88.9901    8.0618 N.pl3   1  UNL1       -0.2780
      2 C          60.4105   87.4920    8.1182 C.3     1  UNL1        0.0941
      3 C          61.0381   86.7638    9.2695 C.3     1  UNL1        0.0306
      4 C          61.7150   87.5337   10.3646 C.3     1  UNL1        0.0799
      5 C          61.7642   89.0318   10.3083 C.3     1  UNL1        0.0306
      6 C          61.1365   89.7600    9.1568 C.3     1  UNL1        0.0941
      7 C          57.7125   90.4570    5.6018 C.ar    1  UNL1        0.2217
      8 N          58.3402   89.7288    6.7532 N.ar    1  UNL1       -0.1808
      9 C          59.8320   89.7183    6.9104 C.ar    1  UNL1        0.2249
     10 N          60.6959   90.4360    5.9162 N.ar    1  UNL1       -0.1807
     11 C          60.0682   91.1642    4.7648 C.ar    1  UNL1        0.2250
     12 N          58.5765   91.1747    4.6076 N.ar    1  UNL1       -0.1808
     13 N          60.9322   91.8819    3.7706 N.pl3   1  UNL1       -0.2752
     14 C          60.3585   92.9935    2.9429 C.3     1  UNL1        0.1109
     15 C          61.2225   93.7112    1.9486 C.3     1  UNL1        0.0939
     16 N          62.6602   93.3172    1.7821 N.3     1  UNL1       -0.2686
     17 C          63.5242   94.0349    0.7879 C.3     1  UNL1        0.0897
     18 C          63.2340   92.2056    2.6099 C.3     1  UNL1        0.0939
     19 C          62.3700   91.4879    3.6041 C.3     1  UNL1        0.1109
     20 C          55.5472   91.6182    4.7575 C.3     1  UNL1        0.1108
     21 N          56.2208   90.4675    5.4446 N.pl3   1  UNL1       -0.3012
     22 H          55.6839   89.7192    5.7924 H       1  UNL1        0.1497
     23 C          62.3427   86.8054   11.5160 C.2     1  UNL1        0.2223
     24 O          63.1928   87.5513   12.5013 O.2     1  UNL1       -0.2751
     25 N          62.1202   85.3313   11.6820 N.am    1  UNL1       -0.3004
     26 H          61.5622   84.8418   11.0353 H       1  UNL1        0.1497
     27 C          62.7478   84.6031   12.8334 C.3     1  UNL1        0.1163
     28 C          62.5711   83.1197   12.9686 C.ar    1  UNL1        0.0013
     29 C          61.7698   82.5605   14.1067 C.ar    1  UNL1       -0.0027
     30 C          61.5931   81.0771   14.2419 C.ar    1  UNL1       -0.0003
     31 C          62.2176   80.1529   13.2390 C.ar    1  UNL1       -0.0001
     32 C          63.0189   80.7121   12.1009 C.ar    1  UNL1        0.0036
     33 C          63.1956   82.1955   11.9657 C.ar    1  UNL1        0.0691
     34 C          63.9969   82.7547   10.8276 C.3     1  UNL1        0.4183
     35 F          64.7981   83.3139    9.6895 F       1  UNL1       -0.1659
     36 F          65.0661   83.1804   11.7896 F       1  UNL1       -0.1659
     37 F          62.9277   82.3289    9.8656 F       1  UNL1       -0.1659
@<TRIPOS>BOND
     1    20    21    1
     2    21     7    1
     3     7     8   ar
     4     8     9   ar
     5     9     1    1
     6     1     2    1
     7     2     3    1
     8     3     4    1
     9     4    23    1
    10    23    24    2
    11    23    25   am
    12    25    27    1
    13    27    28    1
    14    28    29   ar
    15    29    30   ar
    16    30    31   ar
    17    31    32   ar
    18    32    33   ar
    19    33    34    1
    20    34    35    1
    21    34    36    1
    22    34    37    1
    23     4     5    1
    24     5     6    1
    25     9    10   ar
    26    10    11   ar
    27    11    13    1
    28    13    14    1
    29    14    15    1
    30    15    16    1
    31    16    17    1
    32    16    18    1
    33    18    19    1
    34    11    12   ar
    35    12     7   ar
    36     6     1    1
    37    19    13    1
    38    33    28   ar
    39    21    22    1
    40    25    26    1
@<TRIPOS>MOLECULE
*****
 37 40 0 0 0
SMALL
GASTEIGER

@<TRIPOS>ATOM
      1 N          60.4528   89.0849    7.9417 N.pl3   1  UNL1       -0.2780
      2 C          60.4311   87.5857    7.9863 C.3     1  UNL1        0.0941
      3 C          61.0892   86.8595    9.1218 C.3     1  UNL1        0.0306
      4 C          61.7692   87.6325   10.2128 C.3     1  UNL1        0.0799
      5 C          61.7910   89.1317   10.1682 C.3     1  UNL1        0.0306
      6 C          61.1328   89.8579    9.0326 C.3     1  UNL1        0.0941
      7 C          57.6438   90.5063    5.5253 C.ar    1  UNL1        0.2217
      8 N          58.3020   89.7802    6.6608 N.ar    1  UNL1       -0.1808
      9 C          59.7946   89.8111    6.8061 C.ar    1  UNL1        0.2249
     10 N          60.6290   90.5681    5.8159 N.ar    1  UNL1       -0.1807
     11 C          59.9708   91.2943    4.6804 C.ar    1  UNL1        0.2250
     12 N          58.4782   91.2634    4.5351 N.ar    1  UNL1       -0.1808
     13 N          60.8052   92.0514    3.6901 N.pl3   1  UNL1       -0.2752
     14 C          60.1940   93.1618    2.8879 C.3     1  UNL1        0.1109
     15 C          61.0285   93.9189    1.8976 C.3     1  UNL1        0.0939
     16 N          62.4740   93.5655    1.7095 N.3     1  UNL1       -0.2686
     17 C          63.3085   94.3225    0.7193 C.3     1  UNL1        0.0897
     18 C          63.0852   92.4550    2.5117 C.3     1  UNL1        0.0939
     19 C          62.2508   91.6980    3.5019 C.3     1  UNL1        0.1109
     20 C          55.4360   91.6278    4.7393 C.3     1  UNL1        0.1108
     21 N          56.1511   90.4755    5.3801 N.pl3   1  UNL1       -0.3012
     22 H          55.6409   89.6989    5.7053 H       1  UNL1        0.1497
     23 C          62.4274   86.9063   11.3483 C.2     1  UNL1        0.2223
     24 O          62.9806   87.6762   12.5106 O.2     1  UNL1       -0.2751
     25 N          62.5323   85.4102   11.3214 N.am    1  UNL1       -0.3004
     26 H          62.1692   84.9049   10.5585 H       1  UNL1        0.1497
     27 C          63.1905   84.6840   12.4569 C.3     1  UNL1        0.1163
     28 C          62.9314   83.2209   12.6620 C.ar    1  UNL1        0.0013
     29 C          62.9174   82.2896   11.4862 C.ar    1  UNL1       -0.0027
     30 C          62.6583   80.8265   11.6914 C.ar    1  UNL1       -0.0003
     31 C          62.4134   80.2946   13.0723 C.ar    1  UNL1       -0.0001
     32 C          62.4274   81.2258   14.2482 C.ar    1  UNL1        0.0036
     33 C          62.6865   82.6890   14.0431 C.ar    1  UNL1        0.0691
     34 C          62.7006   83.6202   15.2188 C.3     1  UNL1        0.4183
     35 F          62.7146   84.5515   16.3946 F       1  UNL1       -0.1659
     36 F          64.1211   83.2345   15.5073 F       1  UNL1       -0.1659
     37 F          61.2800   84.0059   14.9304 F       1  UNL1       -0.1659
@<TRIPOS>BOND
     1    20    21    1
     2    21     7    1
     3     7     8   ar
     4     8     9   ar
     5     9     1    1
     6     1     2    1
     7     2     3    1
     8     3     4    1
     9     4    23    1
    10    23    24    2
    11    23    25   am
    12    25    27    1
    13    27    28    1
    14    28    29   ar
    15    29    30   ar
    16    30    31   ar
    17    31    32   ar
    18    32    33   ar
    19    33    34    1
    20    34    35    1
    21    34    36    1
    22    34    37    1
    23     4     5    1
    24     5     6    1
    25     9    10   ar
    26    10    11   ar
    27    11    13    1
    28    13    14    1
    29    14    15    1
    30    15    16    1
    31    16    17    1
    32    16    18    1
    33    18    19    1
    34    11    12   ar
    35    12     7   ar
    36     6     1    1
    37    19    13    1
    38    33    28   ar
    39    21    22    1
    40    25    26    1
@<TRIPOS>MOLECULE
*****
 37 40 0 0 0
SMALL
GASTEIGER

@<TRIPOS>ATOM
      1 N          64.7502   89.9306   13.5249 N.pl3   1  UNL1       -0.2780
      2 C          63.8178   89.6139   12.3934 C.3     1  UNL1        0.0941
      3 C          63.1493   88.2729   12.3253 C.3     1  UNL1        0.0306
      4 C          63.4133   87.2484   13.3888 C.3     1  UNL1        0.0799
      5 C          64.3457   87.5651   14.5203 C.3     1  UNL1        0.0306
      6 C          65.0142   88.9063   14.5883 C.3     1  UNL1        0.0941
      7 C          66.6488   93.1058   14.9615 C.ar    1  UNL1        0.2217
      8 N          65.9803   91.7647   14.8935 N.ar    1  UNL1       -0.1808
      9 C          65.4187   91.2718   13.5929 C.ar    1  UNL1        0.2249
     10 N          65.5254   92.1199   12.3603 N.ar    1  UNL1       -0.1807
     11 C          66.1938   93.4610   12.4284 C.ar    1  UNL1        0.2250
     12 N          66.7555   93.9539   13.7290 N.ar    1  UNL1       -0.1808
     13 N          66.3006   94.3092   11.1958 N.pl3   1  UNL1       -0.2752
     14 C          65.9906   95.7752   11.2650 C.3     1  UNL1        0.1109
     15 C          66.0974   96.6234   10.0324 C.3     1  UNL1        0.0939
     16 N          66.5142   96.0056    8.7307 N.3     1  UNL1       -0.2686
     17 C          66.6210   96.8537    7.4981 C.3     1  UNL1        0.0897
     18 C          66.8242   94.5396    8.6615 C.3     1  UNL1        0.0939
     19 C          66.7174   93.6914    9.8940 C.3     1  UNL1        0.1109
     20 C          68.6486   94.0162   16.3478 C.3     1  UNL1        0.1108
     21 N          67.2104   93.5987   16.2621 N.pl3   1  UNL1       -0.3012
     22 H          66.6351   93.6482   17.0595 H       1  UNL1        0.1497
     23 C          62.7449   85.9073   13.3208 C.2     1  UNL1        0.2223
     24 O          62.3784   85.1871   14.5844 O.2     1  UNL1       -0.2751
     25 N          62.4429   85.2865   11.9891 N.am    1  UNL1       -0.3004
     26 H          62.6834   85.7593   11.1597 H       1  UNL1        0.1497
     27 C          61.7745   83.9455   11.9210 C.3     1  UNL1        0.1163
     28 C          62.4103   82.7563   12.5781 C.ar    1  UNL1        0.0013
     29 C          61.8025   82.1704   13.8179 C.ar    1  UNL1       -0.0027
     30 C          62.4383   80.9812   14.4749 C.ar    1  UNL1       -0.0003
     31 C          63.6819   80.3781   13.8922 C.ar    1  UNL1       -0.0001
     32 C          64.2897   80.9641   12.6523 C.ar    1  UNL1        0.0036
     33 C          63.6539   82.1532   11.9952 C.ar    1  UNL1        0.0691
     34 C          64.2617   82.7392   10.7554 C.3     1  UNL1        0.4183
     35 F          64.8695   83.3252    9.5156 F       1  UNL1       -0.1659
     36 F          65.0503   83.6993   11.5958 F       1  UNL1       -0.1659
     37 F          63.4732   81.7791    9.9151 F       1  UNL1       -0.1659
@<TRIPOS>BOND
     1    20    21    1
     2    21     7    1
     3     7     8   ar
     4     8     9   ar
     5     9     1    1
     6     1     2    1
     7     2     3    1
     8     3     4    1
     9     4    23    1
    10    23    24    2
    11    23    25   am
    12    25    27    1
    13    27    28    1
    14    28    29   ar
    15    29    30   ar
    16    30    31   ar
    17    31    32   ar
    18    32    33   ar
    19    33    34    1
    20    34    35    1
    21    34    36    1
    22    34    37    1
    23     4     5    1
    24     5     6    1
    25     9    10   ar
    26    10    11   ar
    27    11    13    1
    28    13    14    1
    29    14    15    1
    30    15    16    1
    31    16    17    1
    32    16    18    1
    33    18    19    1
    34    11    12   ar
    35    12     7   ar
    36     6     1    1
    37    19    13    1
    38    33    28   ar
    39    21    22    1
    40    25    26    1
@<TRIPOS>MOLECULE
*****
 37 40 0 0 0
SMALL
GASTEIGER

@<TRIPOS>ATOM
      1 N          60.1856   92.1798    3.4756 N.pl3   1  UNL1       -0.2780
      2 C          58.7919   92.0869    4.0223 C.3     1  UNL1        0.0941
      3 C          58.5155   91.2441    5.2320 C.3     1  UNL1        0.0306
      4 C          59.6327   90.4943    5.8950 C.3     1  UNL1        0.0799
      5 C          61.0265   90.5873    5.3483 C.3     1  UNL1        0.0306
      6 C          61.3029   91.4301    4.1386 C.3     1  UNL1        0.0941
      7 C          62.1135   94.4192    0.8263 C.ar    1  UNL1        0.2217
      8 N          61.8370   93.5764    2.0359 N.ar    1  UNL1       -0.1808
      9 C          60.4621   93.0226    2.2659 C.ar    1  UNL1        0.2249
     10 N          59.3636   93.3116    1.2862 N.ar    1  UNL1       -0.1807
     11 C          59.6401   94.1544    0.0766 C.ar    1  UNL1        0.2250
     12 N          61.0150   94.7081   -0.1534 N.ar    1  UNL1       -0.1808
     13 N          58.5416   94.4434   -0.9032 N.pl3   1  UNL1       -0.2752
     14 C          57.8353   95.7662   -0.8693 C.3     1  UNL1        0.1109
     15 C          56.7368   96.0552   -1.8491 C.3     1  UNL1        0.0939
     16 N          56.3447   95.0214   -2.8627 N.3     1  UNL1       -0.2686
     17 C          55.2463   95.3103   -3.8424 C.3     1  UNL1        0.0897
     18 C          57.0511   93.6985   -2.8965 C.3     1  UNL1        0.0939
     19 C          58.1495   93.4095   -1.9168 C.3     1  UNL1        0.1109
     20 C          64.2884   95.4980    1.7514 C.3     1  UNL1        0.1108
     21 N          63.4884   94.9730    0.5963 N.pl3   1  UNL1       -0.3012
     22 H          63.8658   94.9918   -0.3128 H       1  UNL1        0.1497
     23 C          59.3563   89.6516    7.1046 C.2     1  UNL1        0.2223
     24 O          58.4297   88.4763    7.0040 O.2     1  UNL1       -0.2751
     25 N          60.0064   89.9841    8.4149 N.am    1  UNL1       -0.3004
     26 H          60.6145   90.7555    8.4809 H       1  UNL1        0.1497
     27 C          59.7299   89.1413    9.6246 C.3     1  UNL1        0.1163
     28 C          60.6791   88.0449   10.0076 C.ar    1  UNL1        0.0013
     29 C          60.4429   86.6451    9.5232 C.ar    1  UNL1       -0.0027
     30 C          61.3921   85.5486    9.9063 C.ar    1  UNL1       -0.0003
     31 C          62.5776   85.8520   10.7738 C.ar    1  UNL1       -0.0001
     32 C          62.8139   87.2518   11.2583 C.ar    1  UNL1        0.0036
     33 C          61.8646   88.3483   10.8752 C.ar    1  UNL1        0.0691
     34 C          62.1009   89.7481   11.3596 C.3     1  UNL1        0.4183
     35 F          62.3371   91.1479   11.8440 F       1  UNL1       -0.1659
     36 F          61.1435   89.5181   12.4912 F       1  UNL1       -0.1659
     37 F          63.0583   89.9781   10.2281 F       1  UNL1       -0.1659
@<TRIPOS>BOND
     1    20    21    1
     2    21     7    1
     3     7     8   ar
     4     8     9   ar
     5     9     1    1
     6     1     2    1
     7     2     3    1
     8     3     4    1
     9     4    23    1
    10    23    24    2
    11    23    25   am
    12    25    27    1
    13    27    28    1
    14    28    29   ar
    15    29    30   ar
    16    30    31   ar
    17    31    32   ar
    18    32    33   ar
    19    33    34    1
    20    34    35    1
    21    34    36    1
    22    34    37    1
    23     4     5    1
    24     5     6    1
    25     9    10   ar
    26    10    11   ar
    27    11    13    1
    28    13    14    1
    29    14    15    1
    30    15    16    1
    31    16    17    1
    32    16    18    1
    33    18    19    1
    34    11    12   ar
    35    12     7   ar
    36     6     1    1
    37    19    13    1
    38    33    28   ar
    39    21    22    1
    40    25    26    1
