@<TRIPOS>MOLECULE
*****
 39 41 0 0 0
SMALL
GASTEIGER

@<TRIPOS>ATOM
      1 C          65.7629   93.8316   11.3878 C.ar    1  UNL1        0.0696
      2 C          64.6764   92.9090   10.9207 C.ar    1  UNL1        0.0057
      3 C          64.2529   91.7539   11.7788 C.ar    1  UNL1       -0.0041
      4 C          64.9159   91.5213   13.1040 C.ar    1  UNL1       -0.0185
      5 C          66.0025   92.4439   13.5711 C.ar    1  UNL1        0.0677
      6 C          66.4260   93.5990   12.7130 C.ar    1  UNL1        0.0095
      7 C          64.4924   90.3662   13.9621 C.3     1  UNL1        0.0257
      8 C          64.4166   88.9865   13.3785 C.3     1  UNL1        0.0259
      9 C          63.9930   87.8314   14.2366 C.3     1  UNL1        0.0940
     10 N          63.6453   88.0560   15.6783 N.am    1  UNL1       -0.2761
     11 C          63.2218   86.9009   16.5364 C.2     1  UNL1        0.2490
     12 O          62.8741   87.1255   17.9781 O.2     1  UNL1       -0.2699
     13 C          63.7211   89.4357   16.2619 C.3     1  UNL1        0.0940
     14 C          64.1447   90.5908   15.4038 C.3     1  UNL1        0.0259
     15 C          63.1460   85.5212   15.9528 C.ar    1  UNL1        0.0536
     16 C          64.4038   84.7970   15.5737 C.ar    1  UNL1        0.0047
     17 C          64.3280   83.4173   14.9901 C.ar    1  UNL1        0.0046
     18 C          62.9944   82.7617   14.7855 C.ar    1  UNL1        0.0531
     19 C          61.7367   83.4858   15.1646 C.ar    1  UNL1        0.0046
     20 C          61.8125   84.8656   15.7482 C.ar    1  UNL1        0.0047
     21 C          62.9187   81.3820   14.2019 C.2     1  UNL1        0.2427
     22 N          61.6478   80.9069   13.5622 N.am    1  UNL1       -0.3253
     23 O          64.1138   80.4773   14.2579 O.2     1  UNL1       -0.2704
     24 H          60.8634   81.5007   13.5255 H       1  UNL1        0.1453
     25 H          61.5981   80.0014   13.1792 H       1  UNL1        0.1453
     26 N          66.1684   94.8572    9.0354 N.am    1  UNL1       -0.1708
     27 C          66.1865   94.9867   10.5297 C.2     1  UNL1        0.3078
     28 O          66.6280   96.2713   11.1658 O.2     1  UNL1       -0.2516
     29 H          65.8786   94.0140    8.6179 H       1  UNL1        0.2545
     30 N          65.7051   96.4838    7.0633 N.pl3   1  UNL1       -0.1313
     31 C          66.5920   96.0123    8.1773 C.2     1  UNL1        0.3751
     32 N          67.9024   96.6959    8.4333 N.pl3   1  UNL1       -0.2906
     33 H          65.9831   97.2419    6.5001 H       1  UNL1        0.3060
     34 H          68.1804   97.4541    7.8701 H       1  UNL1        0.2545
     35 H          68.4845   96.3865    9.1645 H       1  UNL1        0.2545
     36 C          66.6656   92.2113   14.8964 C.3     1  UNL1        0.4183
     37 F          67.3287   91.9788   16.2216 F       1  UNL1       -0.1659
     38 F          65.7346   93.1987   15.5355 F       1  UNL1       -0.1659
     39 F          67.5965   91.2240   14.2573 F       1  UNL1       -0.1659
@<TRIPOS>BOND
     1    30    31    2
     2    31    32    1
     3    31    26    1
     4    26    27   am
     5    27    28    2
     6    27     1    1
     7     1     2   ar
     8     2     3   ar
     9     3     4   ar
    10     4     7    1
    11     7     8    1
    12     8     9    1
    13     9    10    1
    14    10    11   am
    15    11    12    2
    16    11    15    1
    17    15    16   ar
    18    16    17   ar
    19    17    18   ar
    20    18    21    1
    21    21    22   am
    22    21    23    2
    23    18    19   ar
    24    19    20   ar
    25    10    13    1
    26    13    14    1
    27     4     5   ar
    28     5    36    1
    29    36    37    1
    30    36    38    1
    31    36    39    1
    32     5     6   ar
    33     6     1   ar
    34    14     7    1
    35    20    15   ar
    36    30    33    1
    37    32    34    1
    38    32    35    1
    39    26    29    1
    40    22    24    1
    41    22    25    1
