@<TRIPOS>MOLECULE
*****
 28 32 0 0 0
SMALL
GASTEIGER

@<TRIPOS>ATOM
      1 O          61.1776   87.2949    9.0682 O.2     1  UNL1       -0.2638
      2 C          61.9492   87.5175   10.3352 C.2     1  UNL1        0.3160
      3 N          62.4020   88.8990   10.7047 N.am    1  UNL1       -0.1721
      4 C          63.1735   89.1215   11.9717 C.ar    1  UNL1        0.0772
      5 C          63.6263   90.5030   12.3413 C.ar    1  UNL1        0.0128
      6 C          64.3978   90.7255   13.6082 C.ar    1  UNL1       -0.0165
      7 C          64.7165   89.5666   14.5056 C.ar    1  UNL1       -0.0037
      8 C          64.2638   88.1852   14.1361 C.ar    1  UNL1        0.0048
      9 C          63.4922   87.9626   12.8692 C.ar    1  UNL1        0.0623
     10 C          63.0394   86.5812   12.4996 C.2     1  UNL1        0.2419
     11 N          63.2043   85.2551   13.1810 N.2     1  UNL1       -0.0302
     12 C          62.5346   84.2129   12.3351 C.2     1  UNL1        0.3765
     13 N          61.9559   84.8950   11.1310 N.2     1  UNL1       -0.0256
     14 C          62.2679   86.3586   11.2326 C.2     1  UNL1        0.2907
     15 C          62.4572   82.7462   12.6399 C.ar    1  UNL1        0.0989
     16 C          61.8212   82.2777   13.9150 C.ar    1  UNL1        0.0085
     17 C          61.7438   80.8111   14.2198 C.ar    1  UNL1        0.0003
     18 C          62.3025   79.8129   13.2494 C.ar    1  UNL1        0.0009
     19 C          62.9385   80.2814   11.9743 C.ar    1  UNL1        0.0116
     20 C          63.0158   81.7481   11.6695 C.ar    1  UNL1        0.0651
     21 CL         63.6518   82.2166   10.3943 Cl      1  UNL1       -0.0820
     22 C          64.8506   92.1070   13.9778 C.3     1  UNL1        0.0527
     23 C          66.2476   92.3300   14.4767 C.ar    1  UNL1       -0.0178
     24 C          66.4752   92.8126   15.8786 C.ar    1  UNL1       -0.0039
     25 C          67.8721   93.0356   16.3774 C.ar    1  UNL1       -0.0003
     26 C          69.0414   92.7760   15.4744 C.ar    1  UNL1       -0.0000
     27 C          68.8137   92.2934   14.0725 C.ar    1  UNL1       -0.0003
     28 C          67.4168   92.0704   13.5737 C.ar    1  UNL1       -0.0039
@<TRIPOS>BOND
     1     1     2    2
     2     2     3    1
     3     3     4    2
     4     4     5   ar
     5     5     6   ar
     6     6    22    1
     7    22    23    1
     8    23    24   ar
     9    24    25   ar
    10    25    26   ar
    11    26    27   ar
    12    27    28   ar
    13     6     7   ar
    14     7     8   ar
    15     8     9   ar
    16     9    10    2
    17    10    11    1
    18    11    12    2
    19    12    15    1
    20    15    16   ar
    21    16    17   ar
    22    17    18   ar
    23    18    19   ar
    24    19    20   ar
    25    20    21    1
    26    12    13    1
    27    13    14    2
    28    14     2    1
    29     9     4   ar
    30    14    10    1
    31    28    23   ar
    32    20    15   ar
@<TRIPOS>MOLECULE
*****
 28 32 0 0 0
SMALL
GASTEIGER

@<TRIPOS>ATOM
      1 O          60.7977   87.3653    8.7715 O.2     1  UNL1       -0.2638
      2 C          61.6731   87.7439    9.9292 C.2     1  UNL1        0.3160
      3 N          62.1372   89.1615   10.0865 N.am    1  UNL1       -0.1721
      4 C          63.0127   89.5401   11.2442 C.ar    1  UNL1        0.0772
      5 C          63.4768   90.9578   11.4015 C.ar    1  UNL1        0.0128
      6 C          64.3522   91.3363   12.5592 C.ar    1  UNL1       -0.0165
      7 C          64.7635   90.2971   13.5597 C.ar    1  UNL1       -0.0037
      8 C          64.2994   88.8794   13.4024 C.ar    1  UNL1        0.0048
      9 C          63.4240   88.5009   12.2447 C.ar    1  UNL1        0.0623
     10 C          62.9598   87.0832   12.0874 C.2     1  UNL1        0.2419
     11 N          63.2014   85.8512   12.9082 N.2     1  UNL1       -0.0302
     12 C          62.4753   84.7112   12.2577 C.2     1  UNL1        0.3765
     13 N          61.7850   85.2387   11.0350 N.2     1  UNL1       -0.0256
     14 C          62.0845   86.7047   10.9297 C.2     1  UNL1        0.2907
     15 C          62.4448   83.2926   12.7446 C.ar    1  UNL1        0.0989
     16 C          61.8727   82.9751   14.0943 C.ar    1  UNL1        0.0085
     17 C          61.8422   81.5566   14.5811 C.ar    1  UNL1        0.0003
     18 C          62.3839   80.4557   13.7182 C.ar    1  UNL1        0.0009
     19 C          62.9560   80.7733   12.3685 C.ar    1  UNL1        0.0116
     20 C          62.9865   82.1918   11.8817 C.ar    1  UNL1        0.0651
     21 CL         63.5586   82.5094   10.5319 Cl      1  UNL1       -0.0820
     22 C          64.8163   92.7540   12.7165 C.3     1  UNL1        0.0527
     23 C          65.7429   93.3567   11.7025 C.ar    1  UNL1       -0.0178
     24 C          66.5587   92.4684   10.8106 C.ar    1  UNL1       -0.0039
     25 C          67.4853   93.0711    9.7966 C.ar    1  UNL1       -0.0003
     26 C          67.5960   94.5621    9.6744 C.ar    1  UNL1       -0.0000
     27 C          66.7802   95.4503   10.5663 C.ar    1  UNL1       -0.0003
     28 C          65.8536   94.8476   11.5803 C.ar    1  UNL1       -0.0039
@<TRIPOS>BOND
     1     1     2    2
     2     2     3    1
     3     3     4    2
     4     4     5   ar
     5     5     6   ar
     6     6    22    1
     7    22    23    1
     8    23    24   ar
     9    24    25   ar
    10    25    26   ar
    11    26    27   ar
    12    27    28   ar
    13     6     7   ar
    14     7     8   ar
    15     8     9   ar
    16     9    10    2
    17    10    11    1
    18    11    12    2
    19    12    15    1
    20    15    16   ar
    21    16    17   ar
    22    17    18   ar
    23    18    19   ar
    24    19    20   ar
    25    20    21    1
    26    12    13    1
    27    13    14    2
    28    14     2    1
    29     9     4   ar
    30    14    10    1
    31    28    23   ar
    32    20    15   ar
@<TRIPOS>MOLECULE
*****
 28 32 0 0 0
SMALL
GASTEIGER

@<TRIPOS>ATOM
      1 O          63.3039   89.7248   12.4765 O.2     1  UNL1       -0.2638
      2 C          62.4808   89.0251   11.4356 C.2     1  UNL1        0.3160
      3 N          61.7563   89.8223   10.3918 N.am    1  UNL1       -0.1721
      4 C          60.9333   89.1227    9.3510 C.ar    1  UNL1        0.0772
      5 C          60.2087   89.9198    8.3072 C.ar    1  UNL1        0.0128
      6 C          59.3857   89.2202    7.2665 C.ar    1  UNL1       -0.0165
      7 C          59.2873   87.7235    7.2695 C.ar    1  UNL1       -0.0037
      8 C          60.0118   86.9263    8.3133 C.ar    1  UNL1        0.0048
      9 C          60.8348   87.6259    9.3541 C.ar    1  UNL1        0.0623
     10 C          61.5594   86.8288   10.3979 C.2     1  UNL1        0.2419
     11 N          61.6488   85.3530   10.6511 N.2     1  UNL1       -0.0302
     12 C          62.5271   85.1406   11.8484 C.2     1  UNL1        0.3765
     13 N          62.9805   86.4850   12.3351 N.2     1  UNL1       -0.0256
     14 C          62.3824   87.5284   11.4387 C.2     1  UNL1        0.2907
     15 C          62.8886   83.8161   12.4528 C.ar    1  UNL1        0.0989
     16 C          62.3525   83.4356   13.8010 C.ar    1  UNL1        0.0085
     17 C          62.7140   82.1112   14.4054 C.ar    1  UNL1        0.0003
     18 C          63.6116   81.1673   13.6615 C.ar    1  UNL1        0.0009
     19 C          64.1477   81.5478   12.3133 C.ar    1  UNL1        0.0116
     20 C          63.7862   82.8722   11.7089 C.ar    1  UNL1        0.0651
     21 CL         64.3223   83.2527   10.3606 Cl      1  UNL1       -0.0820
     22 C          58.6612   90.0174    6.2226 C.3     1  UNL1        0.0527
     23 C          59.4355   90.8365    5.2329 C.ar    1  UNL1       -0.0178
     24 C          58.7542   91.9359    4.4731 C.ar    1  UNL1       -0.0039
     25 C          59.5285   92.7550    3.4834 C.ar    1  UNL1       -0.0003
     26 C          60.9841   92.4747    3.2535 C.ar    1  UNL1       -0.0000
     27 C          61.6653   91.3753    4.0133 C.ar    1  UNL1       -0.0003
     28 C          60.8910   90.5562    5.0030 C.ar    1  UNL1       -0.0039
@<TRIPOS>BOND
     1     1     2    2
     2     2     3    1
     3     3     4    2
     4     4     5   ar
     5     5     6   ar
     6     6    22    1
     7    22    23    1
     8    23    24   ar
     9    24    25   ar
    10    25    26   ar
    11    26    27   ar
    12    27    28   ar
    13     6     7   ar
    14     7     8   ar
    15     8     9   ar
    16     9    10    2
    17    10    11    1
    18    11    12    2
    19    12    15    1
    20    15    16   ar
    21    16    17   ar
    22    17    18   ar
    23    18    19   ar
    24    19    20   ar
    25    20    21    1
    26    12    13    1
    27    13    14    2
    28    14     2    1
    29     9     4   ar
    30    14    10    1
    31    28    23   ar
    32    20    15   ar
