@<TRIPOS>MOLECULE
*****
 38 42 0 0 0
SMALL
GASTEIGER

@<TRIPOS>ATOM
      1 C          63.5196   88.2174   15.4973 C.3     1  UNL1        0.2246
      2 C          63.6525   86.7360   15.3025 C.2     1  UNL1        0.0436
      3 C          63.4300   85.8048   16.4573 C.2     1  UNL1        0.0288
      4 C          63.0747   86.3549   17.8068 C.2     1  UNL1        0.0896
      5 N          62.9418   87.8363   18.0016 N.am    1  UNL1       -0.1770
      6 C          63.1643   88.7675   16.8468 C.2     1  UNL1        0.2627
      7 O          63.0314   90.2488   17.0416 O.2     1  UNL1       -0.2719
      8 C          61.8779   90.2400   10.1777 C.3     1  UNL1        0.0312
      9 C          63.0774   90.8140   10.8717 C.2     1  UNL1        0.0136
     10 C          63.8699   91.9075   10.2187 C.2     1  UNL1        0.0107
     11 C          65.0693   92.4815   10.9127 C.2     1  UNL1        0.0509
     12 C          65.4765   91.9620   12.2597 C.2     1  UNL1        0.0613
     13 C          64.6841   90.8686   12.9127 C.2     1  UNL1        0.2246
     14 N          64.8432   90.1603   14.2254 N.2     1  UNL1       -0.0378
     15 C          63.7421   89.1486   14.3426 C.2     1  UNL1        0.3605
     16 N          62.9023   89.2315   13.1024 N.2     1  UNL1       -0.0547
     17 C          63.4846   90.2946   12.2187 C.3     1  UNL1        0.2976
     18 N          65.8618   93.5750   10.2596 N.pl3   1  UNL1       -0.3073
     19 C          65.3391   94.9810   10.2569 C.3     1  UNL1        0.0933
     20 C          66.1314   96.0745    9.6039 C.3     1  UNL1        0.0507
     21 C          67.4465   95.7620    8.9537 C.3     1  UNL1        0.1139
     22 O          68.2390   96.8554    8.3007 O.3     1  UNL1       -0.3843
     23 C          67.9692   94.3560    8.9564 C.3     1  UNL1        0.0507
     24 C          67.1768   93.2625    9.6094 C.3     1  UNL1        0.0933
     25 H          69.0567   96.4861    7.9320 H       1  UNL1        0.2103
     26 N          64.0078   86.1858   13.9531 N.pl3   1  UNL1       -0.3329
     27 H          64.2004   86.7985   13.2069 H       1  UNL1        0.1466
     28 C          64.0697   84.7023   13.7405 C.3     1  UNL1        0.1211
     29 C          63.0898   84.0348   12.8217 C.3     1  UNL1        0.1522
     30 O          62.4233   82.7566   13.2366 O.3     1  UNL1       -0.3783
     31 H          62.7348   82.5012   14.1190 H       1  UNL1        0.2109
     32 C          62.7764   84.6454   11.4880 C.ar    1  UNL1        0.0067
     33 C          63.5393   84.2177   10.2694 C.ar    1  UNL1       -0.0018
     34 C          63.2260   84.8284    8.9356 C.ar    1  UNL1        0.0006
     35 C          62.1496   85.8668    8.8204 C.ar    1  UNL1        0.0114
     36 C          61.3867   86.2944   10.0390 C.ar    1  UNL1        0.0574
     37 CL         60.3103   87.3328    9.9238 Cl      1  UNL1       -0.0823
     38 C          61.7001   85.6838   11.3727 C.ar    1  UNL1        0.0095
@<TRIPOS>BOND
     1     8     9    1
     2     9    10    2
     3    10    11    1
     4    11    18    1
     5    18    19    1
     6    19    20    1
     7    20    21    1
     8    21    22    1
     9    21    23    1
    10    23    24    1
    11    11    12    2
    12    12    13    1
    13    13    14    2
    14    14    15    1
    15    15     1    1
    16     1     2    1
    17     2    26    1
    18    26    28    1
    19    28    29    1
    20    29    30    1
    21    29    32    1
    22    32    33   ar
    23    33    34   ar
    24    34    35   ar
    25    35    36   ar
    26    36    37    1
    27    36    38   ar
    28     2     3    2
    29     3     4    1
    30     4     5    2
    31     5     6    1
    32     6     7    2
    33    15    16    2
    34    16    17    1
    35    17     9    1
    36    24    18    1
    37    17    13    1
    38     6     1    1
    39    38    32   ar
    40    22    25    1
    41    26    27    1
    42    30    31    1
@<TRIPOS>MOLECULE
*****
 38 42 0 0 0
SMALL
GASTEIGER

@<TRIPOS>ATOM
      1 C          63.5139   88.1326   15.4980 C.3     1  UNL1        0.2246
      2 C          63.6469   86.6520   15.2980 C.2     1  UNL1        0.0436
      3 C          63.4234   85.7166   16.4491 C.2     1  UNL1        0.0288
      4 C          63.0668   86.2618   17.8003 C.2     1  UNL1        0.0896
      5 N          62.9338   87.7425   18.0003 N.am    1  UNL1       -0.1770
      6 C          63.1573   88.6778   16.8491 C.2     1  UNL1        0.2627
      7 O          63.0243   90.1585   17.0492 O.2     1  UNL1       -0.2719
      8 C          61.9131   90.1333   10.1577 C.3     1  UNL1        0.0312
      9 C          63.0940   90.7254   10.8682 C.2     1  UNL1        0.0136
     10 C          63.8780   91.8316   10.2265 C.2     1  UNL1        0.0107
     11 C          65.0589   92.4237   10.9370 C.2     1  UNL1        0.0509
     12 C          65.4559   91.9097   12.2892 C.2     1  UNL1        0.0613
     13 C          64.6718   90.8035   12.9308 C.2     1  UNL1        0.2246
     14 N          64.8242   90.0969   14.2451 N.2     1  UNL1       -0.0378
     15 C          63.7374   89.0681   14.3469 C.2     1  UNL1        0.3605
     16 N          62.9134   89.1388   13.0955 N.2     1  UNL1       -0.0547
     17 C          63.4909   90.2114   12.2203 C.3     1  UNL1        0.2976
     18 N          65.8430   93.5299   10.2953 N.pl3   1  UNL1       -0.3073
     19 C          65.3420   94.9421   10.3643 C.3     1  UNL1        0.0933
     20 C          66.1260   96.0482    9.7226 C.3     1  UNL1        0.0507
     21 C          67.4111   95.7422    9.0120 C.3     1  UNL1        0.1139
     22 O          68.1951   96.8483    8.3704 O.3     1  UNL1       -0.3843
     23 C          67.9121   94.3300    8.9431 C.3     1  UNL1        0.0507
     24 C          67.1281   93.2239    9.5847 C.3     1  UNL1        0.0933
     25 H          68.9928   96.4818    7.9577 H       1  UNL1        0.2103
     26 N          64.0035   86.1067   13.9469 N.pl3   1  UNL1       -0.3329
     27 H          64.9334   85.8511   13.7490 H       1  UNL1        0.1466
     28 C          62.9433   85.9508   12.8973 C.3     1  UNL1        0.1211
     29 C          62.9616   84.7613   11.9837 C.3     1  UNL1        0.1522
     30 O          63.1838   84.9492   10.5121 O.3     1  UNL1       -0.3783
     31 H          63.2970   85.8932   10.3202 H       1  UNL1        0.2109
     32 C          62.7577   83.3840   12.5416 C.ar    1  UNL1        0.0067
     33 C          62.4195   83.2046   13.9918 C.ar    1  UNL1       -0.0018
     34 C          62.2156   81.8273   14.5497 C.ar    1  UNL1        0.0006
     35 C          62.3499   80.6291   13.6573 C.ar    1  UNL1        0.0114
     36 C          62.6881   80.8084   12.2070 C.ar    1  UNL1        0.0574
     37 CL         62.8224   79.6103   11.3146 Cl      1  UNL1       -0.0823
     38 C          62.8920   82.1858   11.6491 C.ar    1  UNL1        0.0095
@<TRIPOS>BOND
     1     8     9    1
     2     9    10    2
     3    10    11    1
     4    11    18    1
     5    18    19    1
     6    19    20    1
     7    20    21    1
     8    21    22    1
     9    21    23    1
    10    23    24    1
    11    11    12    2
    12    12    13    1
    13    13    14    2
    14    14    15    1
    15    15     1    1
    16     1     2    1
    17     2    26    1
    18    26    28    1
    19    28    29    1
    20    29    30    1
    21    29    32    1
    22    32    33   ar
    23    33    34   ar
    24    34    35   ar
    25    35    36   ar
    26    36    37    1
    27    36    38   ar
    28     2     3    2
    29     3     4    1
    30     4     5    2
    31     5     6    1
    32     6     7    2
    33    15    16    2
    34    16    17    1
    35    17     9    1
    36    24    18    1
    37    17    13    1
    38     6     1    1
    39    38    32   ar
    40    22    25    1
    41    26    27    1
    42    30    31    1
@<TRIPOS>MOLECULE
*****
 38 42 0 0 0
SMALL
GASTEIGER

@<TRIPOS>ATOM
      1 C          61.2496   88.0047    9.8974 C.3     1  UNL1        0.2246
      2 C          61.1300   86.5345    9.6250 C.2     1  UNL1        0.0436
      3 C          60.1907   86.0423    8.5640 C.2     1  UNL1        0.0288
      4 C          59.3710   87.0203    7.7756 C.2     1  UNL1        0.0896
      5 N          59.4905   88.4905    8.0480 N.am    1  UNL1       -0.1770
      6 C          60.4299   88.9826    9.1090 C.2     1  UNL1        0.2627
      7 O          60.5494   90.4528    9.3814 O.2     1  UNL1       -0.2719
      8 C          64.0037   87.1588   15.0727 C.3     1  UNL1        0.0312
      9 C          64.2257   88.4197   14.2911 C.2     1  UNL1        0.0136
     10 C          65.1501   89.4765   14.8191 C.2     1  UNL1        0.0107
     11 C          65.3720   90.7373   14.0376 C.2     1  UNL1        0.0509
     12 C          64.6696   90.9416   12.7280 C.2     1  UNL1        0.0613
     13 C          63.7452   89.8848   12.2000 C.2     1  UNL1        0.2246
     14 N          62.9205   89.8064   10.9496 N.2     1  UNL1       -0.0378
     15 C          62.1889   88.4969   10.9583 C.2     1  UNL1        0.3605
     16 N          62.5614   87.7661   12.2141 N.2     1  UNL1       -0.0547
     17 C          63.5232   88.6239   12.9816 C.3     1  UNL1        0.2976
     18 N          66.2965   91.7941   14.5656 N.pl3   1  UNL1       -0.3073
     19 C          67.3449   91.4363   15.5770 C.3     1  UNL1        0.0933
     20 C          68.2693   92.4930   16.1050 C.3     1  UNL1        0.0507
     21 C          68.1453   93.9076   15.6216 C.3     1  UNL1        0.1139
     22 O          69.0697   94.9643   16.1495 O.3     1  UNL1       -0.3843
     23 C          67.0970   94.2654   14.6102 C.3     1  UNL1        0.0507
     24 C          66.1725   93.2087   14.0822 C.3     1  UNL1        0.0933
     25 H          68.8562   95.8160   15.7371 H       1  UNL1        0.2103
     26 N          61.9497   85.5565   10.4133 N.pl3   1  UNL1       -0.3329
     27 H          61.7709   85.4248   11.3724 H       1  UNL1        0.1466
     28 C          63.0419   84.7791    9.7405 C.3     1  UNL1        0.1211
     29 C          63.6958   83.6332   10.4540 C.3     1  UNL1        0.1522
     30 O          64.7129   82.7897    9.7440 O.3     1  UNL1       -0.3783
     31 H          64.8298   83.1178    8.8387 H       1  UNL1        0.2109
     32 C          63.3326   83.3306   11.8776 C.ar    1  UNL1        0.0067
     33 C          63.9133   84.1517   12.9905 C.ar    1  UNL1       -0.0018
     34 C          63.5502   83.8491   14.4141 C.ar    1  UNL1        0.0006
     35 C          62.6062   82.7255   14.7248 C.ar    1  UNL1        0.0114
     36 C          62.0255   81.9045   13.6118 C.ar    1  UNL1        0.0574
     37 CL         61.0816   80.7809   13.9225 Cl      1  UNL1       -0.0823
     38 C          62.3887   82.2070   12.1883 C.ar    1  UNL1        0.0095
@<TRIPOS>BOND
     1     8     9    1
     2     9    10    2
     3    10    11    1
     4    11    18    1
     5    18    19    1
     6    19    20    1
     7    20    21    1
     8    21    22    1
     9    21    23    1
    10    23    24    1
    11    11    12    2
    12    12    13    1
    13    13    14    2
    14    14    15    1
    15    15     1    1
    16     1     2    1
    17     2    26    1
    18    26    28    1
    19    28    29    1
    20    29    30    1
    21    29    32    1
    22    32    33   ar
    23    33    34   ar
    24    34    35   ar
    25    35    36   ar
    26    36    37    1
    27    36    38   ar
    28     2     3    2
    29     3     4    1
    30     4     5    2
    31     5     6    1
    32     6     7    2
    33    15    16    2
    34    16    17    1
    35    17     9    1
    36    24    18    1
    37    17    13    1
    38     6     1    1
    39    38    32   ar
    40    22    25    1
    41    26    27    1
    42    30    31    1
@<TRIPOS>MOLECULE
*****
 38 42 0 0 0
SMALL
GASTEIGER

@<TRIPOS>ATOM
      1 C          64.5529   90.6374   14.9761 C.3     1  UNL1        0.2246
      2 C          65.6735   91.4975   14.4715 C.2     1  UNL1        0.0436
      3 C          66.1029   92.7040   15.2525 C.2     1  UNL1        0.0288
      4 C          65.4120   93.0504   16.5380 C.2     1  UNL1        0.0896
      5 N          64.2914   92.1903   17.0426 N.am    1  UNL1       -0.1770
      6 C          63.8619   90.9838   16.2616 C.2     1  UNL1        0.2627
      7 O          62.7414   90.1237   16.7661 O.2     1  UNL1       -0.2719
      8 C          61.9102   88.3120   10.2124 C.3     1  UNL1        0.0312
      9 C          62.5003   87.4208   11.2647 C.2     1  UNL1        0.0136
     10 C          62.4233   85.9303   11.1146 C.2     1  UNL1        0.0107
     11 C          63.0134   85.0391   12.1669 C.2     1  UNL1        0.0509
     12 C          63.6805   85.6383   13.3695 C.2     1  UNL1        0.0613
     13 C          63.7574   87.1287   13.5196 C.2     1  UNL1        0.2246
     14 N          64.3483   88.0007   14.5875 N.2     1  UNL1       -0.0378
     15 C          64.1234   89.4309   14.1952 C.2     1  UNL1        0.3605
     16 N          63.3935   89.4428   12.8848 N.2     1  UNL1       -0.0547
     17 C          63.1673   88.0200   12.4672 C.3     1  UNL1        0.2976
     18 N          62.9364   83.5485   12.0168 N.pl3   1  UNL1       -0.3073
     19 C          63.4181   82.8960   10.7550 C.3     1  UNL1        0.0933
     20 C          63.3412   81.4055   10.6048 C.3     1  UNL1        0.0507
     21 C          62.7825   80.5676   11.7164 C.3     1  UNL1        0.1139
     22 O          62.7055   79.0771   11.5664 O.3     1  UNL1       -0.3843
     23 C          62.3008   81.2201   12.9782 C.3     1  UNL1        0.0507
     24 C          62.3777   82.7106   13.1284 C.3     1  UNL1        0.0933
     25 H          62.3227   78.6906   12.3695 H       1  UNL1        0.2103
     26 N          66.3645   91.1512   13.1861 N.pl3   1  UNL1       -0.3329
     27 H          67.0385   90.4338   13.1673 H       1  UNL1        0.1466
     28 C          66.0287   91.8978   11.9292 C.3     1  UNL1        0.1211
     29 C          67.0942   92.6680   11.2070 C.3     1  UNL1        0.1522
     30 O          68.4350   92.0423   10.9602 O.3     1  UNL1       -0.3783
     31 H          68.4458   91.1450   11.3285 H       1  UNL1        0.2109
     32 C          66.8189   94.0637   10.7316 C.ar    1  UNL1        0.0067
     33 C          66.0934   95.0295   11.6208 C.ar    1  UNL1       -0.0018
     34 C          65.8181   96.4253   11.1453 C.ar    1  UNL1        0.0006
     35 C          66.2684   96.8553    9.7807 C.ar    1  UNL1        0.0114
     36 C          66.9939   95.8895    8.8915 C.ar    1  UNL1        0.0574
     37 CL         67.4442   96.3195    7.5268 Cl      1  UNL1       -0.0823
     38 C          67.2692   94.4937    9.3669 C.ar    1  UNL1        0.0095
@<TRIPOS>BOND
     1     8     9    1
     2     9    10    2
     3    10    11    1
     4    11    18    1
     5    18    19    1
     6    19    20    1
     7    20    21    1
     8    21    22    1
     9    21    23    1
    10    23    24    1
    11    11    12    2
    12    12    13    1
    13    13    14    2
    14    14    15    1
    15    15     1    1
    16     1     2    1
    17     2    26    1
    18    26    28    1
    19    28    29    1
    20    29    30    1
    21    29    32    1
    22    32    33   ar
    23    33    34   ar
    24    34    35   ar
    25    35    36   ar
    26    36    37    1
    27    36    38   ar
    28     2     3    2
    29     3     4    1
    30     4     5    2
    31     5     6    1
    32     6     7    2
    33    15    16    2
    34    16    17    1
    35    17     9    1
    36    24    18    1
    37    17    13    1
    38     6     1    1
    39    38    32   ar
    40    22    25    1
    41    26    27    1
    42    30    31    1
@<TRIPOS>MOLECULE
*****
 38 42 0 0 0
SMALL
GASTEIGER

@<TRIPOS>ATOM
      1 C          65.1361   91.5292   13.5578 C.3     1  UNL1        0.2246
      2 C          64.9200   91.9929   12.1477 C.2     1  UNL1        0.0436
      3 C          65.3682   93.3626   11.7316 C.2     1  UNL1        0.0288
      4 C          66.0324   94.2686   12.7255 C.2     1  UNL1        0.0896
      5 N          66.2485   93.8050   14.1356 N.am    1  UNL1       -0.1770
      6 C          65.8004   92.4353   14.5517 C.2     1  UNL1        0.2627
      7 O          66.0165   91.9717   15.9618 O.2     1  UNL1       -0.2719
      8 C          63.0246   87.8949   17.7312 C.3     1  UNL1        0.0312
      9 C          63.3175   87.3803   16.3530 C.2     1  UNL1        0.0136
     10 C          63.0759   85.9369   16.0243 C.2     1  UNL1        0.0107
     11 C          63.3688   85.4223   14.6462 C.2     1  UNL1        0.0509
     12 C          63.9033   86.3512   13.5966 C.2     1  UNL1        0.0613
     13 C          64.1449   87.7946   13.9253 C.2     1  UNL1        0.2246
     14 N          64.6616   88.9382   13.1036 N.2     1  UNL1       -0.0378
     15 C          64.6880   90.1596   13.9740 C.2     1  UNL1        0.3605
     16 N          64.1877   89.7708   15.3336 N.2     1  UNL1       -0.0547
     17 C          63.8520   88.3092   15.3035 C.3     1  UNL1        0.2976
     18 N          63.1271   83.9788   14.3175 N.pl3   1  UNL1       -0.3073
     19 C          64.0809   83.2433   13.4234 C.3     1  UNL1        0.0933
     20 C          63.8393   81.7999   13.0947 C.3     1  UNL1        0.0507
     21 C          62.6439   81.0919   13.6602 C.3     1  UNL1        0.1139
     22 O          62.4022   79.6484   13.3316 O.3     1  UNL1       -0.3843
     23 C          61.6901   81.8273   14.5543 C.3     1  UNL1        0.0507
     24 C          61.9317   83.2707   14.8830 C.3     1  UNL1        0.0933
     25 H          61.5936   79.3470   13.7745 H       1  UNL1        0.2103
     26 N          64.2559   91.0869   11.1538 N.pl3   1  UNL1       -0.3329
     27 H          64.7966   90.4602   10.6208 H       1  UNL1        0.1466
     28 C          62.7678   91.1358   10.9717 C.3     1  UNL1        0.1211
     29 C          61.9195   89.9812   11.4161 C.3     1  UNL1        0.1522
     30 O          61.4845   89.8775   12.8479 O.3     1  UNL1       -0.3783
     31 H          61.8348   90.6315   13.3477 H       1  UNL1        0.2109
     32 C          61.5063   88.9303   10.4287 C.ar    1  UNL1        0.0067
     33 C          60.2452   89.1015    9.6349 C.ar    1  UNL1       -0.0018
     34 C          59.8320   88.0507    8.6475 C.ar    1  UNL1        0.0006
     35 C          60.6800   86.8285    8.4539 C.ar    1  UNL1        0.0114
     36 C          61.9411   86.6574    9.2478 C.ar    1  UNL1        0.0574
     37 CL         62.7890   85.4352    9.0543 Cl      1  UNL1       -0.0823
     38 C          62.3543   87.7082   10.2352 C.ar    1  UNL1        0.0095
@<TRIPOS>BOND
     1     8     9    1
     2     9    10    2
     3    10    11    1
     4    11    18    1
     5    18    19    1
     6    19    20    1
     7    20    21    1
     8    21    22    1
     9    21    23    1
    10    23    24    1
    11    11    12    2
    12    12    13    1
    13    13    14    2
    14    14    15    1
    15    15     1    1
    16     1     2    1
    17     2    26    1
    18    26    28    1
    19    28    29    1
    20    29    30    1
    21    29    32    1
    22    32    33   ar
    23    33    34   ar
    24    34    35   ar
    25    35    36   ar
    26    36    37    1
    27    36    38   ar
    28     2     3    2
    29     3     4    1
    30     4     5    2
    31     5     6    1
    32     6     7    2
    33    15    16    2
    34    16    17    1
    35    17     9    1
    36    24    18    1
    37    17    13    1
    38     6     1    1
    39    38    32   ar
    40    22    25    1
    41    26    27    1
    42    30    31    1
