@<TRIPOS>MOLECULE
*****
 42 46 0 0 0
SMALL
GASTEIGER

@<TRIPOS>ATOM
      1 C          64.7730   96.1514   -2.9496 C.ar    1  UNL1        0.1721
      2 C          65.2950   95.7817   -1.5929 C.ar    1  UNL1        0.0360
      3 C          64.4042   95.0773   -0.6129 C.ar    1  UNL1       -0.0119
      4 C          62.9914   94.7426   -0.9897 C.ar    1  UNL1       -0.0000
      5 C          62.4694   95.1123   -2.3465 C.ar    1  UNL1        0.0374
      6 C          63.3602   95.8167   -3.3264 C.ar    1  UNL1        0.1718
      7 C          62.1006   94.0382   -0.0098 C.3     1  UNL1        0.1246
      8 N          62.6226   93.6684    1.3470 N.am    1  UNL1       -0.2508
      9 C          64.0354   94.0031    1.7238 C.2     1  UNL1        0.2342
     10 O          64.5574   93.6334    3.0806 O.2     1  UNL1       -0.2742
     11 C          64.9262   94.7075    0.7439 C.3     1  UNL1        0.1118
     12 C          60.6878   93.7035   -0.3866 C.ar    1  UNL1        0.0003
     13 C          60.3172   92.2905   -0.7276 C.ar    1  UNL1       -0.0015
     14 C          58.9044   91.9558   -1.1044 C.ar    1  UNL1        0.0111
     15 C          57.8622   93.0340   -1.1402 C.ar    1  UNL1        0.0577
     16 CL         56.4494   92.6993   -1.5170 Cl      1  UNL1       -0.0822
     17 C          58.2328   94.4469   -0.7991 C.ar    1  UNL1        0.0111
     18 C          59.6456   94.7817   -0.4223 C.ar    1  UNL1       -0.0015
     19 C          61.7318   92.9640    2.3269 C.ar    1  UNL1        0.0736
     20 C          62.2298   91.7514    3.0560 C.ar    1  UNL1        0.0194
     21 C          61.3390   91.0470    4.0359 C.ar    1  UNL1        0.0356
     22 C          59.9502   91.5552    4.2868 C.ar    1  UNL1        0.1318
     23 N          59.4522   92.7679    3.5578 N.ar    1  UNL1       -0.2279
     24 C          60.3430   93.4723    2.5778 C.ar    1  UNL1        0.1151
     25 N          59.0594   90.8508    5.2668 N.pl3   1  UNL1       -0.2915
     26 C          57.8924   91.5724    5.8727 C.3     1  UNL1        0.1136
     27 C          59.3357   89.4246    5.6408 C.3     1  UNL1        0.0922
     28 C          59.5768   89.0587    7.0754 C.3     1  UNL1        0.0199
     29 C          60.0734   90.0943    8.0403 C.3     1  UNL1        0.0031
     30 C          60.3145   89.7284    9.4748 C.3     1  UNL1        0.0160
     31 C          60.0590   88.3269    9.9445 C.3     1  UNL1        0.0576
     32 C          59.5624   87.2914    8.9796 C.3     1  UNL1        0.0160
     33 C          59.3213   87.6573    7.5450 C.3     1  UNL1        0.0031
     34 N          60.3000   87.9610   11.3791 N.3     1  UNL1       -0.2716
     35 C          59.6598   88.7608   12.4748 C.3     1  UNL1        0.0896
     36 C          61.1812   86.7954   11.7179 C.3     1  UNL1        0.0896
     37 C          66.0297   96.1905   -5.2231 C.3     1  UNL1        0.2526
     38 O          65.6638   96.8558   -3.9296 O.3     1  UNL1       -0.4684
     39 O          62.8381   96.1864   -4.6832 O.3     1  UNL1       -0.4761
     40 C          62.1612   95.1528   -5.5336 C.3     1  UNL1        0.1663
     41 C          60.6772   95.2101   -5.7449 C.3     1  UNL1        0.0472
     42 C          62.9681   94.0617   -6.1727 C.3     1  UNL1        0.0472
@<TRIPOS>BOND
     1    37    38    1
     2    38     1    1
     3     1     2   ar
     4     2     3   ar
     5     3     4   ar
     6     4     5   ar
     7     5     6   ar
     8     6    39    1
     9    39    40    1
    10    40    41    1
    11    40    42    1
    12     4     7    1
    13     7    12    1
    14    12    13   ar
    15    13    14   ar
    16    14    15   ar
    17    15    16    1
    18    15    17   ar
    19    17    18   ar
    20     7     8    1
    21     8    19    1
    22    19    20   ar
    23    20    21   ar
    24    21    22   ar
    25    22    25    1
    26    25    26    1
    27    25    27    1
    28    28    27    1
    29    28    29    1
    30    29    30    1
    31    30    31    1
    32    31    34    1
    33    34    35    1
    34    34    36    1
    35    31    32    1
    36    32    33    1
    37    22    23   ar
    38    23    24   ar
    39     8     9   am
    40     9    10    2
    41     9    11    1
    42     6     1   ar
    43    18    12   ar
    44    24    19   ar
    45    11     3    1
    46    33    28    1
@<TRIPOS>MOLECULE
*****
 42 46 0 0 0
SMALL
GASTEIGER

@<TRIPOS>ATOM
      1 C          60.4141   91.4199    5.1694 C.ar    1  UNL1        0.1721
      2 C          61.7537   91.2875    4.5077 C.ar    1  UNL1        0.0360
      3 C          62.0210   91.9882    3.2086 C.ar    1  UNL1       -0.0119
      4 C          60.9487   92.8212    2.5712 C.ar    1  UNL1       -0.0000
      5 C          59.6091   92.9535    3.2329 C.ar    1  UNL1        0.0374
      6 C          59.3418   92.2528    4.5320 C.ar    1  UNL1        0.1718
      7 C          61.2160   93.5218    1.2721 C.3     1  UNL1        0.1246
      8 N          62.5556   93.3895    0.6104 N.am    1  UNL1       -0.2508
      9 C          63.6280   92.5565    1.2478 C.2     1  UNL1        0.2342
     10 O          64.9676   92.4242    0.5861 O.2     1  UNL1       -0.2742
     11 C          63.3607   91.8558    2.5469 C.3     1  UNL1        0.1118
     12 C          60.1437   94.3548    0.6347 C.ar    1  UNL1        0.0003
     13 C          59.1494   93.7177   -0.2902 C.ar    1  UNL1       -0.0015
     14 C          58.0772   94.5506   -0.9276 C.ar    1  UNL1        0.0111
     15 C          57.9991   96.0208   -0.6401 C.ar    1  UNL1        0.0577
     16 CL         56.9267   96.8537   -1.2775 Cl      1  UNL1       -0.0822
     17 C          58.9933   96.6579    0.2848 C.ar    1  UNL1        0.0111
     18 C          60.0657   95.8249    0.9223 C.ar    1  UNL1       -0.0015
     19 C          62.8230   94.0902   -0.6887 C.ar    1  UNL1        0.0736
     20 C          63.2682   95.5225   -0.6905 C.ar    1  UNL1        0.0194
     21 C          63.5356   96.2232   -1.9896 C.ar    1  UNL1        0.0356
     22 C          63.3576   95.4915   -3.2869 C.ar    1  UNL1        0.1318
     23 N          62.9123   94.0590   -3.2851 N.ar    1  UNL1       -0.2279
     24 C          62.6450   93.3584   -1.9860 C.ar    1  UNL1        0.1151
     25 N          63.6249   96.1921   -4.5859 N.pl3   1  UNL1       -0.2915
     26 C          65.0315   96.3299   -5.0882 C.3     1  UNL1        0.1136
     27 C          62.4855   96.7551   -5.3828 C.3     1  UNL1        0.0922
     28 C          61.1284   96.1212   -5.3019 C.3     1  UNL1        0.0199
     29 C          60.7697   94.9964   -6.2274 C.3     1  UNL1        0.0031
     30 C          59.4126   94.3625   -6.1465 C.3     1  UNL1        0.0160
     31 C          58.4143   94.8533   -5.1403 C.3     1  UNL1        0.0576
     32 C          58.7730   95.9780   -4.2149 C.3     1  UNL1        0.0160
     33 C          60.1301   96.6119   -4.2957 C.3     1  UNL1        0.0031
     34 N          57.0572   94.2194   -5.0594 N.3     1  UNL1       -0.2716
     35 C          55.9602   94.8915   -4.2880 C.3     1  UNL1        0.0896
     36 C          56.7971   92.9135   -5.7500 C.3     1  UNL1        0.0896
     37 C          59.7936   89.2614    6.4755 C.3     1  UNL1        0.2526
     38 O          60.1468   90.7192    6.4685 O.3     1  UNL1       -0.4684
     39 O          58.0021   92.3852    5.1937 O.3     1  UNL1       -0.4761
     40 C          56.9937   91.2813    5.0731 C.3     1  UNL1        0.1663
     41 C          55.6571   91.5514    4.4482 C.3     1  UNL1        0.0472
     42 C          57.3220   89.9073    5.5775 C.3     1  UNL1        0.0472
@<TRIPOS>BOND
     1    37    38    1
     2    38     1    1
     3     1     2   ar
     4     2     3   ar
     5     3     4   ar
     6     4     5   ar
     7     5     6   ar
     8     6    39    1
     9    39    40    1
    10    40    41    1
    11    40    42    1
    12     4     7    1
    13     7    12    1
    14    12    13   ar
    15    13    14   ar
    16    14    15   ar
    17    15    16    1
    18    15    17   ar
    19    17    18   ar
    20     7     8    1
    21     8    19    1
    22    19    20   ar
    23    20    21   ar
    24    21    22   ar
    25    22    25    1
    26    25    26    1
    27    25    27    1
    28    28    27    1
    29    28    29    1
    30    29    30    1
    31    30    31    1
    32    31    34    1
    33    34    35    1
    34    34    36    1
    35    31    32    1
    36    32    33    1
    37    22    23   ar
    38    23    24   ar
    39     8     9   am
    40     9    10    2
    41     9    11    1
    42     6     1   ar
    43    18    12   ar
    44    24    19   ar
    45    11     3    1
    46    33    28    1
@<TRIPOS>MOLECULE
*****
 42 46 0 0 0
SMALL
GASTEIGER

@<TRIPOS>ATOM
      1 C          64.0095   84.4196   13.2900 C.ar    1  UNL1        0.1721
      2 C          63.4957   85.8144   13.4905 C.ar    1  UNL1        0.0360
      3 C          62.8124   86.5313   12.3639 C.ar    1  UNL1       -0.0119
      4 C          62.6430   85.8533   11.0367 C.ar    1  UNL1       -0.0000
      5 C          63.1568   84.4585   10.8361 C.ar    1  UNL1        0.0374
      6 C          63.8401   83.7416   11.9627 C.ar    1  UNL1        0.1718
      7 C          61.9598   86.5702    9.9101 C.3     1  UNL1        0.1246
      8 N          61.4460   87.9651   10.1107 N.am    1  UNL1       -0.2508
      9 C          61.6154   88.6432   11.4380 C.2     1  UNL1        0.2342
     10 O          61.1016   90.0380   11.6386 O.2     1  UNL1       -0.2742
     11 C          62.2986   87.9263   12.5646 C.3     1  UNL1        0.1118
     12 C          61.7904   85.8922    8.5828 C.ar    1  UNL1        0.0003
     13 C          62.9952   85.4368    7.8141 C.ar    1  UNL1       -0.0015
     14 C          62.8258   84.7588    6.4868 C.ar    1  UNL1        0.0111
     15 C          61.4516   84.5362    5.9283 C.ar    1  UNL1        0.0577
     16 CL         61.2822   83.8582    4.6010 Cl      1  UNL1       -0.0822
     17 C          60.2468   84.9916    6.6970 C.ar    1  UNL1        0.0111
     18 C          60.4161   85.6697    8.0243 C.ar    1  UNL1       -0.0015
     19 C          60.7628   88.6820    8.9840 C.ar    1  UNL1        0.0736
     20 C          59.5130   88.1124    8.3810 C.ar    1  UNL1        0.0194
     21 C          58.8298   88.8293    7.2544 C.ar    1  UNL1        0.0356
     22 C          59.3963   90.1157    6.7308 C.ar    1  UNL1        0.1318
     23 N          60.6461   90.6853    7.3339 N.ar    1  UNL1       -0.2279
     24 C          61.3293   89.9685    8.4605 C.ar    1  UNL1        0.1151
     25 N          58.7131   90.8326    5.6042 N.pl3   1  UNL1       -0.2915
     26 C          57.5922   90.1673    4.8620 C.3     1  UNL1        0.1136
     27 C          59.1508   92.2149    5.2197 C.3     1  UNL1        0.0922
     28 C          60.1251   92.4076    4.0956 C.3     1  UNL1        0.0199
     29 C          59.7988   93.3478    2.9732 C.3     1  UNL1        0.0031
     30 C          60.7730   93.5405    1.8490 C.3     1  UNL1        0.0160
     31 C          62.0736   92.7930    1.8473 C.3     1  UNL1        0.0576
     32 C          62.3998   91.8528    2.9696 C.3     1  UNL1        0.0160
     33 C          61.4255   91.6601    4.0937 C.3     1  UNL1        0.0031
     34 N          63.0478   92.9856    0.7231 N.3     1  UNL1       -0.2716
     35 C          64.5195   93.0434    1.0077 C.3     1  UNL1        0.0896
     36 C          62.5504   93.1206   -0.6856 C.3     1  UNL1        0.0896
     37 C          63.8781   83.0493   15.4934 C.3     1  UNL1        0.2526
     38 O          64.6927   83.7027   14.4166 O.3     1  UNL1       -0.4684
     39 O          64.3539   82.3466   11.7621 O.3     1  UNL1       -0.4761
     40 C          63.3925   81.1986   11.6750 C.3     1  UNL1        0.1663
     41 C          62.7144   80.6925   12.9136 C.3     1  UNL1        0.0472
     42 C          63.1092   80.5565   10.3493 C.3     1  UNL1        0.0472
@<TRIPOS>BOND
     1    37    38    1
     2    38     1    1
     3     1     2   ar
     4     2     3   ar
     5     3     4   ar
     6     4     5   ar
     7     5     6   ar
     8     6    39    1
     9    39    40    1
    10    40    41    1
    11    40    42    1
    12     4     7    1
    13     7    12    1
    14    12    13   ar
    15    13    14   ar
    16    14    15   ar
    17    15    16    1
    18    15    17   ar
    19    17    18   ar
    20     7     8    1
    21     8    19    1
    22    19    20   ar
    23    20    21   ar
    24    21    22   ar
    25    22    25    1
    26    25    26    1
    27    25    27    1
    28    28    27    1
    29    28    29    1
    30    29    30    1
    31    30    31    1
    32    31    34    1
    33    34    35    1
    34    34    36    1
    35    31    32    1
    36    32    33    1
    37    22    23   ar
    38    23    24   ar
    39     8     9   am
    40     9    10    2
    41     9    11    1
    42     6     1   ar
    43    18    12   ar
    44    24    19   ar
    45    11     3    1
    46    33    28    1
