@<TRIPOS>MOLECULE
*****
 31 35 0 0 0
SMALL
GASTEIGER

@<TRIPOS>ATOM
      1 C          63.6437   91.0517   12.9259 C.ar    1  UNL1        0.0599
      2 C          62.8082   90.6135   11.7598 C.ar    1  UNL1        0.0955
      3 N          63.3598   91.2619   10.5248 N.ar    1  UNL1       -0.2292
      4 C          64.5362   92.1009   10.9276 C.ar    1  UNL1        0.1481
      5 C          65.4703   92.9663   10.1349 C.ar    1  UNL1        0.0488
      6 C          66.5798   93.7018   10.8261 C.ar    1  UNL1        0.0622
      7 CL         67.5139   94.5673   10.0334 Cl      1  UNL1       -0.0821
      8 C          66.7553   93.5719   12.3102 C.ar    1  UNL1        0.0305
      9 C          65.8212   92.7065   13.1029 C.ar    1  UNL1        0.0820
     10 N          64.7116   91.9710   12.4116 N.ar    1  UNL1       -0.2927
     11 C          63.4460   90.6425   14.3554 C.3     1  UNL1        0.0707
     12 C          63.9662   89.3203   14.8360 C.3     1  UNL1        0.1571
     13 S          63.4505   88.7316   16.1156 S.O2    1  UNL1       -0.0096
     14 O          63.8427   87.3628   15.6439 O.2     1  UNL1       -0.1730
     15 O          63.0583   90.1004   16.5873 O.2     1  UNL1       -0.1730
     16 C          62.7080   86.6640   17.5025 C.3     1  UNL1        0.0271
     17 C          62.9348   88.1428   17.3952 C.3     1  UNL1        0.1509
     18 C          61.6283   89.6892   11.8184 C.3     1  UNL1        0.1575
     19 N          61.6706   88.3726   11.1009 N.ar    1  UNL1       -0.2726
     20 C          62.4799   87.1751   11.5025 C.ar    1  UNL1        0.3318
     21 O          63.3889   87.0842   12.6922 O.2     1  UNL1       -0.2463
     22 N          62.2205   86.0848   10.5056 N.ar    1  UNL1       -0.2817
     23 C          61.2508   86.6083    9.4878 C.ar    1  UNL1        0.0827
     24 C          60.6335   85.9802    8.2737 C.ar    1  UNL1        0.0395
     25 C          59.6763   86.7660    7.4273 C.ar    1  UNL1        0.1005
     26 N          59.3365   88.1799    7.7952 N.ar    1  UNL1       -0.2407
     27 C          59.9538   88.8081    9.0094 C.ar    1  UNL1        0.1176
     28 C          60.9110   88.0223    9.8557 C.ar    1  UNL1        0.0992
     29 C          62.8246   84.7120   10.5234 C.3     1  UNL1        0.0900
     30 C          63.6897   83.6650    9.8865 C.3     1  UNL1        0.0246
     31 C          63.0060   83.3810   11.1911 C.3     1  UNL1        0.0246
@<TRIPOS>BOND
     1    16    17    1
     2    17    13    1
     3    13    14    2
     4    13    15    2
     5    13    12    1
     6    12    11    1
     7    11     1    1
     8     1     2   ar
     9     2    18    1
    10    18    19    1
    11    19    20   ar
    12    20    21    2
    13    20    22   ar
    14    22    29    1
    15    29    30    1
    16    30    31    1
    17    22    23   ar
    18    23    24   ar
    19    24    25   ar
    20    25    26   ar
    21    26    27   ar
    22    27    28   ar
    23     2     3   ar
    24     3     4   ar
    25     4     5   ar
    26     5     6   ar
    27     6     7    1
    28     6     8   ar
    29     8     9   ar
    30     9    10   ar
    31    10     1   ar
    32    28    19   ar
    33    10     4   ar
    34    31    29    1
    35    28    23   ar
@<TRIPOS>MOLECULE
*****
 31 35 0 0 0
SMALL
GASTEIGER

@<TRIPOS>ATOM
      1 C          62.9314   88.7147   12.3327 C.ar    1  UNL1        0.0599
      2 C          62.6904   90.1872   12.1793 C.ar    1  UNL1        0.0955
      3 N          61.6927   90.3811   11.0762 N.ar    1  UNL1       -0.2292
      4 C          61.3170   89.0284   10.5478 C.ar    1  UNL1        0.1481
      5 C          60.3767   88.6014    9.4600 C.ar    1  UNL1        0.0488
      6 C          60.2021   87.1445    9.1487 C.ar    1  UNL1        0.0622
      7 CL         59.2617   86.7175    8.0608 Cl      1  UNL1       -0.0821
      8 C          60.9677   86.1146    9.9253 C.ar    1  UNL1        0.0305
      9 C          61.9079   86.5416   11.0132 C.ar    1  UNL1        0.0820
     10 N          62.0826   87.9985   11.3245 N.ar    1  UNL1       -0.2927
     11 C          63.8585   88.0712   13.3209 C.3     1  UNL1        0.0707
     12 C          64.1873   88.7707   14.6064 C.3     1  UNL1        0.1571
     13 S          63.5148   88.3536   15.8807 S.O2    1  UNL1       -0.0096
     14 O          63.1972   89.7881   16.1827 O.2     1  UNL1       -0.1730
     15 O          63.8324   86.9190   15.5786 O.2     1  UNL1       -0.1730
     16 C          62.7408   86.4821   17.5081 C.3     1  UNL1        0.0271
     17 C          62.8423   87.9364   17.1549 C.3     1  UNL1        0.1509
     18 C          63.3341   91.2749   12.9871 C.3     1  UNL1        0.1575
     19 N          64.7178   91.7433   12.6465 N.ar    1  UNL1       -0.2726
     20 C          65.2168   92.0967   11.2767 C.ar    1  UNL1        0.3318
     21 O          64.4196   92.0438   10.0072 O.2     1  UNL1       -0.2463
     22 N          66.6528   92.5124   11.3994 N.ar    1  UNL1       -0.2817
     23 C          67.0414   92.4158   12.8451 C.ar    1  UNL1        0.0827
     24 C          68.3296   92.6993   13.5592 C.ar    1  UNL1        0.0395
     25 C          68.4221   92.5074   15.0440 C.ar    1  UNL1        0.1005
     26 N          67.2262   92.0321   15.8147 N.ar    1  UNL1       -0.2407
     27 C          65.9379   91.7486   15.1006 C.ar    1  UNL1        0.1176
     28 C          65.8455   91.9405   13.6158 C.ar    1  UNL1        0.0992
     29 C          67.5438   92.9481   10.2742 C.3     1  UNL1        0.0900
     30 C          68.6669   92.6632    9.3215 C.3     1  UNL1        0.0246
     31 C          67.9640   93.9876    9.2778 C.3     1  UNL1        0.0246
@<TRIPOS>BOND
     1    16    17    1
     2    17    13    1
     3    13    14    2
     4    13    15    2
     5    13    12    1
     6    12    11    1
     7    11     1    1
     8     1     2   ar
     9     2    18    1
    10    18    19    1
    11    19    20   ar
    12    20    21    2
    13    20    22   ar
    14    22    29    1
    15    29    30    1
    16    30    31    1
    17    22    23   ar
    18    23    24   ar
    19    24    25   ar
    20    25    26   ar
    21    26    27   ar
    22    27    28   ar
    23     2     3   ar
    24     3     4   ar
    25     4     5   ar
    26     5     6   ar
    27     6     7    1
    28     6     8   ar
    29     8     9   ar
    30     9    10   ar
    31    10     1   ar
    32    28    19   ar
    33    10     4   ar
    34    31    29    1
    35    28    23   ar
@<TRIPOS>MOLECULE
*****
 31 35 0 0 0
SMALL
GASTEIGER

@<TRIPOS>ATOM
      1 C          62.3818   87.9167   11.3374 C.ar    1  UNL1        0.0599
      2 C          62.8919   88.7894   12.4457 C.ar    1  UNL1        0.0955
      3 N          63.5797   87.9108   13.4482 N.ar    1  UNL1       -0.2292
      4 C          63.4948   86.4952   12.9595 C.ar    1  UNL1        0.1481
      5 C          63.9959   85.2033   13.5338 C.ar    1  UNL1        0.0488
      6 C          63.7567   83.9151   12.8036 C.ar    1  UNL1        0.0622
      7 CL         64.2579   82.6232   13.3779 Cl      1  UNL1       -0.0821
      8 C          63.0163   83.9188   11.4991 C.ar    1  UNL1        0.0305
      9 C          62.5152   85.2106   10.9247 C.ar    1  UNL1        0.0820
     10 N          62.7544   86.4988   11.6549 N.ar    1  UNL1       -0.2927
     11 C          61.6309   88.3805   10.1245 C.3     1  UNL1        0.0707
     12 C          60.3323   87.7291    9.7518 C.3     1  UNL1        0.1571
     13 S          59.6741   88.0615    8.4456 S.O2    1  UNL1       -0.0096
     14 O          60.1177   89.4876    8.5849 O.2     1  UNL1       -0.1730
     15 O          59.2305   86.6353    8.3062 O.2     1  UNL1       -0.1730
     16 C          59.3798   89.6565    6.4160 C.3     1  UNL1        0.0271
     17 C          59.0159   88.3938    7.1393 C.3     1  UNL1        0.1509
     18 C          62.7406   90.2790   12.5357 C.3     1  UNL1        0.1575
     19 N          63.9367   91.1664   12.3571 N.ar    1  UNL1       -0.2726
     20 C          64.4212   91.7427   11.0597 C.ar    1  UNL1        0.3318
     21 O          63.7946   91.5327    9.7131 O.2     1  UNL1       -0.2463
     22 N          65.6422   92.5659   11.3453 N.ar    1  UNL1       -0.2817
     23 C          65.9124   92.4984   12.8193 C.ar    1  UNL1        0.0827
     24 C          66.9819   93.1126   13.6727 C.ar    1  UNL1        0.0395
     25 C          66.9976   92.8621   15.1517 C.ar    1  UNL1        0.1005
     26 N          65.9435   91.9972   15.7769 N.ar    1  UNL1       -0.2407
     27 C          64.8739   91.3829   14.9234 C.ar    1  UNL1        0.1176
     28 C          64.8583   91.6334   13.4446 C.ar    1  UNL1        0.0992
     29 C          66.4509   93.3235   10.3345 C.3     1  UNL1        0.0900
     30 C          67.6047   93.3876    9.3780 C.3     1  UNL1        0.0246
     31 C          66.6982   94.5717    9.5401 C.3     1  UNL1        0.0246
@<TRIPOS>BOND
     1    16    17    1
     2    17    13    1
     3    13    14    2
     4    13    15    2
     5    13    12    1
     6    12    11    1
     7    11     1    1
     8     1     2   ar
     9     2    18    1
    10    18    19    1
    11    19    20   ar
    12    20    21    2
    13    20    22   ar
    14    22    29    1
    15    29    30    1
    16    30    31    1
    17    22    23   ar
    18    23    24   ar
    19    24    25   ar
    20    25    26   ar
    21    26    27   ar
    22    27    28   ar
    23     2     3   ar
    24     3     4   ar
    25     4     5   ar
    26     5     6   ar
    27     6     7    1
    28     6     8   ar
    29     8     9   ar
    30     9    10   ar
    31    10     1   ar
    32    28    19   ar
    33    10     4   ar
    34    31    29    1
    35    28    23   ar
@<TRIPOS>MOLECULE
*****
 31 35 0 0 0
SMALL
GASTEIGER

@<TRIPOS>ATOM
      1 C          64.0487   90.7568   12.6246 C.ar    1  UNL1        0.0599
      2 C          62.9185   90.6326   11.6463 C.ar    1  UNL1        0.0955
      3 N          63.1787   91.5822   10.5146 N.ar    1  UNL1       -0.2292
      4 C          64.4696   92.2932   10.7936 C.ar    1  UNL1        0.1481
      5 C          65.2250   93.3393   10.0287 C.ar    1  UNL1        0.0488
      6 C          66.5180   93.8752   10.5678 C.ar    1  UNL1        0.0622
      7 CL         67.2734   94.9213    9.8029 Cl      1  UNL1       -0.0821
      8 C          67.0557   93.3651   11.8719 C.ar    1  UNL1        0.0305
      9 C          66.3004   92.3191   12.6369 C.ar    1  UNL1        0.0820
     10 N          65.0073   91.7831   12.0977 N.ar    1  UNL1       -0.2927
     11 C          64.1946   89.9894   13.9052 C.3     1  UNL1        0.0707
     12 C          63.7624   90.6059   15.2025 C.3     1  UNL1        0.1571
     13 S          64.6450   91.6062   15.8884 S.O2    1  UNL1       -0.0096
     14 O          65.8481   90.9919   15.2363 O.2     1  UNL1       -0.1730
     15 O          63.4419   92.2206   16.5404 O.2     1  UNL1       -0.1730
     16 C          66.9813   92.6946   16.2155 C.3     1  UNL1        0.0271
     17 C          65.5275   92.6066   16.5742 C.3     1  UNL1        0.1509
     18 C          61.7358   89.7192   11.7766 C.3     1  UNL1        0.1575
     19 N          61.7481   88.3763   11.1086 N.ar    1  UNL1       -0.2726
     20 C          62.5247   87.1745   11.5589 C.ar    1  UNL1        0.3318
     21 O          63.4252   87.1048   12.7565 O.2     1  UNL1       -0.2463
     22 N          62.2426   86.0547   10.6016 N.ar    1  UNL1       -0.2817
     23 C          61.2916   86.5644    9.5594 C.ar    1  UNL1        0.0827
     24 C          60.6645   85.9075    8.3657 C.ar    1  UNL1        0.0395
     25 C          59.7317   86.6852    7.4852 C.ar    1  UNL1        0.1005
     26 N          59.4262   88.1199    7.7986 N.ar    1  UNL1       -0.2407
     27 C          60.0533   88.7770    8.9924 C.ar    1  UNL1        0.1176
     28 C          60.9860   87.9992    9.8728 C.ar    1  UNL1        0.0992
     29 C          62.8114   84.6688   10.6736 C.3     1  UNL1        0.0900
     30 C          63.6674   83.5838   10.0902 C.3     1  UNL1        0.0246
     31 C          62.9409   83.3528   11.3820 C.3     1  UNL1        0.0246
@<TRIPOS>BOND
     1    16    17    1
     2    17    13    1
     3    13    14    2
     4    13    15    2
     5    13    12    1
     6    12    11    1
     7    11     1    1
     8     1     2   ar
     9     2    18    1
    10    18    19    1
    11    19    20   ar
    12    20    21    2
    13    20    22   ar
    14    22    29    1
    15    29    30    1
    16    30    31    1
    17    22    23   ar
    18    23    24   ar
    19    24    25   ar
    20    25    26   ar
    21    26    27   ar
    22    27    28   ar
    23     2     3   ar
    24     3     4   ar
    25     4     5   ar
    26     5     6   ar
    27     6     7    1
    28     6     8   ar
    29     8     9   ar
    30     9    10   ar
    31    10     1   ar
    32    28    19   ar
    33    10     4   ar
    34    31    29    1
    35    28    23   ar
@<TRIPOS>MOLECULE
*****
 31 35 0 0 0
SMALL
GASTEIGER

@<TRIPOS>ATOM
      1 C          62.4544   87.4905   11.2011 C.ar    1  UNL1        0.0599
      2 C          62.9168   88.3644   12.3291 C.ar    1  UNL1        0.0955
      3 N          63.5640   87.4872   13.3595 N.ar    1  UNL1       -0.2292
      4 C          63.5015   86.0713   12.8683 C.ar    1  UNL1        0.1481
      5 C          63.9805   84.7804   13.4634 C.ar    1  UNL1        0.0488
      6 C          63.7737   83.4916   12.7244 C.ar    1  UNL1        0.0622
      7 CL         64.2527   82.2006   13.3195 Cl      1  UNL1       -0.0821
      8 C          63.0879   83.4937   11.3904 C.ar    1  UNL1        0.0305
      9 C          62.6089   84.7845   10.7953 C.ar    1  UNL1        0.0820
     10 N          62.8157   86.0734   11.5343 N.ar    1  UNL1       -0.2927
     11 C          61.7535   87.9527    9.9580 C.3     1  UNL1        0.0707
     12 C          60.3471   87.5108    9.6816 C.3     1  UNL1        0.1571
     13 S          59.6405   87.9862    8.4467 S.O2    1  UNL1       -0.0096
     14 O          60.0296   89.3988    8.7679 O.2     1  UNL1       -0.1730
     15 O          59.2515   86.5735    8.1256 O.2     1  UNL1       -0.1730
     16 C          59.4939   89.6066    6.4212 C.3     1  UNL1        0.0271
     17 C          58.9339   88.4615    7.2119 C.3     1  UNL1        0.1509
     18 C          62.7597   89.8538   12.4122 C.3     1  UNL1        0.1575
     19 N          63.9280   90.7107   12.8005 N.ar    1  UNL1       -0.2726
     20 C          64.6244   90.7026   14.1290 C.ar    1  UNL1        0.3318
     21 O          64.2748   89.8361   15.3024 O.2     1  UNL1       -0.2463
     22 N          65.7318   91.7131   14.0781 N.ar    1  UNL1       -0.2817
     23 C          65.7198   92.3458   12.7181 C.ar    1  UNL1        0.0827
     24 C          66.5799   93.4059   12.0967 C.ar    1  UNL1        0.0395
     25 C          66.3253   93.8466   10.6856 C.ar    1  UNL1        0.1005
     26 N          65.2105   93.2271    9.8961 N.ar    1  UNL1       -0.2407
     27 C          64.3503   92.1669   10.5175 C.ar    1  UNL1        0.1176
     28 C          64.6049   91.7263   11.9285 C.ar    1  UNL1        0.0992
     29 C          66.6840   92.0344   15.1916 C.3     1  UNL1        0.0900
     30 C          68.0460   91.9203   15.8099 C.3     1  UNL1        0.0246
     31 C          66.9715   92.7053   16.5021 C.3     1  UNL1        0.0246
@<TRIPOS>BOND
     1    16    17    1
     2    17    13    1
     3    13    14    2
     4    13    15    2
     5    13    12    1
     6    12    11    1
     7    11     1    1
     8     1     2   ar
     9     2    18    1
    10    18    19    1
    11    19    20   ar
    12    20    21    2
    13    20    22   ar
    14    22    29    1
    15    29    30    1
    16    30    31    1
    17    22    23   ar
    18    23    24   ar
    19    24    25   ar
    20    25    26   ar
    21    26    27   ar
    22    27    28   ar
    23     2     3   ar
    24     3     4   ar
    25     4     5   ar
    26     5     6   ar
    27     6     7    1
    28     6     8   ar
    29     8     9   ar
    30     9    10   ar
    31    10     1   ar
    32    28    19   ar
    33    10     4   ar
    34    31    29    1
    35    28    23   ar
@<TRIPOS>MOLECULE
*****
 31 35 0 0 0
SMALL
GASTEIGER

@<TRIPOS>ATOM
      1 C          63.4612   90.0472   12.9959 C.ar    1  UNL1        0.0599
      2 C          62.6796   89.6378   11.7828 C.ar    1  UNL1        0.0955
      3 N          63.0835   90.5314   10.6478 N.ar    1  UNL1       -0.2292
      4 C          64.1147   91.4932   11.1594 C.ar    1  UNL1        0.1481
      5 C          64.8713   92.6028   10.4913 C.ar    1  UNL1        0.0488
      6 C          65.8612   93.4131   11.2744 C.ar    1  UNL1        0.0622
      7 CL         66.6179   94.5228   10.6063 Cl      1  UNL1       -0.0821
      8 C          66.0947   93.1138   12.7256 C.ar    1  UNL1        0.0305
      9 C          65.3381   92.0043   13.3937 C.ar    1  UNL1        0.0820
     10 N          64.3481   91.1939   12.6106 N.ar    1  UNL1       -0.2927
     11 C          63.3716   89.4201   14.3555 C.3     1  UNL1        0.0707
     12 C          64.3472   88.3531   14.7551 C.3     1  UNL1        0.1571
     13 S          63.9197   87.2559   15.6843 S.O2    1  UNL1       -0.0096
     14 O          62.8640   88.1535   16.2586 O.2     1  UNL1       -0.1730
     15 O          64.9755   86.3583   15.1100 O.2     1  UNL1       -0.1730
     16 C          62.6727   86.4809   17.8278 C.3     1  UNL1        0.0271
     17 C          63.4923   86.1586   16.6135 C.3     1  UNL1        0.1509
     18 C          61.6713   88.5293   11.7165 C.3     1  UNL1        0.1575
     19 N          61.9365   87.3242   10.8636 N.ar    1  UNL1       -0.2726
     20 C          61.5778   87.1730    9.4149 C.ar    1  UNL1        0.3318
     21 O          60.8910   88.2005    8.5649 O.2     1  UNL1       -0.2463
     22 N          62.0266   85.8141    8.9656 N.ar    1  UNL1       -0.2817
     23 C          62.6626   85.1253   10.1366 C.ar    1  UNL1        0.0827
     24 C          63.2852   83.7689   10.2863 C.ar    1  UNL1        0.0395
     25 C          63.8522   83.3457   11.6090 C.ar    1  UNL1        0.1005
     26 N          63.7965   84.2790   12.7819 N.ar    1  UNL1       -0.2407
     27 C          63.1738   85.6355   12.6323 C.ar    1  UNL1        0.1176
     28 C          62.6069   86.0586   11.3096 C.ar    1  UNL1        0.0992
     29 C          61.8673   85.2440    7.5874 C.3     1  UNL1        0.0900
     30 C          62.4747   84.6950    6.3305 C.3     1  UNL1        0.0246
     31 C          60.9841   84.8056    6.4570 C.3     1  UNL1        0.0246
@<TRIPOS>BOND
     1    16    17    1
     2    17    13    1
     3    13    14    2
     4    13    15    2
     5    13    12    1
     6    12    11    1
     7    11     1    1
     8     1     2   ar
     9     2    18    1
    10    18    19    1
    11    19    20   ar
    12    20    21    2
    13    20    22   ar
    14    22    29    1
    15    29    30    1
    16    30    31    1
    17    22    23   ar
    18    23    24   ar
    19    24    25   ar
    20    25    26   ar
    21    26    27   ar
    22    27    28   ar
    23     2     3   ar
    24     3     4   ar
    25     4     5   ar
    26     5     6   ar
    27     6     7    1
    28     6     8   ar
    29     8     9   ar
    30     9    10   ar
    31    10     1   ar
    32    28    19   ar
    33    10     4   ar
    34    31    29    1
    35    28    23   ar
@<TRIPOS>MOLECULE
*****
 31 35 0 0 0
SMALL
GASTEIGER

@<TRIPOS>ATOM
      1 C          64.8777   91.9536   11.8410 C.ar    1  UNL1        0.0599
      2 C          63.6689   91.2392   12.3689 C.ar    1  UNL1        0.0955
      3 N          63.8868   90.9767   13.8296 N.ar    1  UNL1       -0.2292
      4 C          65.2301   91.5289   14.2045 C.ar    1  UNL1        0.1481
      5 C          65.9748   91.5599   15.5062 C.ar    1  UNL1        0.0488
      6 C          67.3319   92.1947   15.5789 C.ar    1  UNL1        0.0622
      7 CL         68.0766   92.2258   16.8806 Cl      1  UNL1       -0.0821
      8 C          67.9443   92.7984   14.3499 C.ar    1  UNL1        0.0305
      9 C          67.1996   92.7674   13.0482 C.ar    1  UNL1        0.0820
     10 N          65.8425   92.1326   12.9755 N.ar    1  UNL1       -0.2927
     11 C          65.0851   92.4090   10.4270 C.3     1  UNL1        0.0707
     12 C          66.4188   92.9466   10.0002 C.3     1  UNL1        0.1571
     13 S          66.6816   94.4228   10.0448 S.O2    1  UNL1       -0.0096
     14 O          65.2400   94.6693   10.3780 O.2     1  UNL1       -0.1730
     15 O          68.1231   94.1762    9.7115 O.2     1  UNL1       -0.1730
     16 C          66.1978   96.7646   11.0606 C.3     1  UNL1        0.0271
     17 C          66.9443   95.8989   10.0894 C.3     1  UNL1        0.1509
     18 C          62.4554   90.8548   11.5754 C.3     1  UNL1        0.1575
     19 N          62.2110   89.4161   11.2285 N.ar    1  UNL1       -0.2726
     20 C          62.7993   88.2277   11.9298 C.ar    1  UNL1        0.3318
     21 O          63.7354   88.2696   13.1011 O.2     1  UNL1       -0.2463
     22 N          62.2872   86.9903   11.2542 N.ar    1  UNL1       -0.2817
     23 C          61.3823   87.4138   10.1352 C.ar    1  UNL1        0.0827
     24 C          60.5952   86.6281    9.1288 C.ar    1  UNL1        0.0395
     25 C          59.7609   87.3414    8.1065 C.ar    1  UNL1        0.1005
     26 N          59.7139   88.8406    8.0906 N.ar    1  UNL1       -0.2407
     27 C          60.5010   89.6265    9.0971 C.ar    1  UNL1        0.1176
     28 C          61.3352   88.9131   10.1194 C.ar    1  UNL1        0.0992
     29 C          62.6212   85.5775   11.6312 C.3     1  UNL1        0.0900
     30 C          62.9459   84.1685   11.2319 C.3     1  UNL1        0.0246
     31 C          62.8752   84.5392   12.6836 C.3     1  UNL1        0.0246
@<TRIPOS>BOND
     1    16    17    1
     2    17    13    1
     3    13    14    2
     4    13    15    2
     5    13    12    1
     6    12    11    1
     7    11     1    1
     8     1     2   ar
     9     2    18    1
    10    18    19    1
    11    19    20   ar
    12    20    21    2
    13    20    22   ar
    14    22    29    1
    15    29    30    1
    16    30    31    1
    17    22    23   ar
    18    23    24   ar
    19    24    25   ar
    20    25    26   ar
    21    26    27   ar
    22    27    28   ar
    23     2     3   ar
    24     3     4   ar
    25     4     5   ar
    26     5     6   ar
    27     6     7    1
    28     6     8   ar
    29     8     9   ar
    30     9    10   ar
    31    10     1   ar
    32    28    19   ar
    33    10     4   ar
    34    31    29    1
    35    28    23   ar
@<TRIPOS>MOLECULE
*****
 31 35 0 0 0
SMALL
GASTEIGER

@<TRIPOS>ATOM
      1 C          62.6187   83.9822   13.8937 C.ar    1  UNL1        0.0599
      2 C          63.0832   84.9131   12.8132 C.ar    1  UNL1        0.0955
      3 N          63.3384   84.0997   11.5789 N.ar    1  UNL1       -0.2292
      4 C          63.0316   82.6663   11.8967 C.ar    1  UNL1        0.1481
      5 C          63.0998   81.4177   11.0681 C.ar    1  UNL1        0.0488
      6 C          62.7231   80.0966   11.6703 C.ar    1  UNL1        0.0622
      7 CL         62.7913   78.8480   10.8417 Cl      1  UNL1       -0.0821
      8 C          62.2783   80.0239   13.1010 C.ar    1  UNL1        0.0305
      9 C          62.2101   81.2725   13.9295 C.ar    1  UNL1        0.0820
     10 N          62.5868   82.5936   13.3273 N.ar    1  UNL1       -0.2927
     11 C          62.2506   84.3716   15.2948 C.3     1  UNL1        0.0707
     12 C          63.2765   84.9951   16.1940 C.3     1  UNL1        0.1571
     13 S          63.0329   86.3538   16.7810 S.O2    1  UNL1       -0.0096
     14 O          62.0029   85.7709   17.7027 O.2     1  UNL1       -0.1730
     15 O          64.0628   86.9366   15.8594 O.2     1  UNL1       -0.1730
     16 C          63.1788   88.9415   16.6015 C.3     1  UNL1        0.0271
     17 C          62.7892   87.7125   17.3681 C.3     1  UNL1        0.1509
     18 C          63.2613   86.3967   12.9439 C.3     1  UNL1        0.1575
     19 N          62.6802   87.3158   11.9107 N.ar    1  UNL1       -0.2726
     20 C          61.6963   86.9342   10.8445 C.ar    1  UNL1        0.3318
     21 O          61.1210   85.5665   10.6246 O.2     1  UNL1       -0.2463
     22 N          61.3889   88.1603   10.0371 N.ar    1  UNL1       -0.2817
     23 C          62.1828   89.2998   10.6041 C.ar    1  UNL1        0.0827
     24 C          62.2821   90.7452   10.2157 C.ar    1  UNL1        0.0395
     25 C          63.1794   91.6687   10.9852 C.ar    1  UNL1        0.1005
     26 N          63.9774   91.1467   12.1430 N.ar    1  UNL1       -0.2407
     27 C          63.8781   89.7012   12.5315 C.ar    1  UNL1        0.1176
     28 C          62.9808   88.7778   11.7621 C.ar    1  UNL1        0.0992
     29 C          60.4522   88.2341    8.8680 C.3     1  UNL1        0.0900
     30 C          59.7977   89.0271    7.7757 C.3     1  UNL1        0.0246
     31 C          59.4841   87.5689    7.9350 C.3     1  UNL1        0.0246
@<TRIPOS>BOND
     1    16    17    1
     2    17    13    1
     3    13    14    2
     4    13    15    2
     5    13    12    1
     6    12    11    1
     7    11     1    1
     8     1     2   ar
     9     2    18    1
    10    18    19    1
    11    19    20   ar
    12    20    21    2
    13    20    22   ar
    14    22    29    1
    15    29    30    1
    16    30    31    1
    17    22    23   ar
    18    23    24   ar
    19    24    25   ar
    20    25    26   ar
    21    26    27   ar
    22    27    28   ar
    23     2     3   ar
    24     3     4   ar
    25     4     5   ar
    26     5     6   ar
    27     6     7    1
    28     6     8   ar
    29     8     9   ar
    30     9    10   ar
    31    10     1   ar
    32    28    19   ar
    33    10     4   ar
    34    31    29    1
    35    28    23   ar
@<TRIPOS>MOLECULE
*****
 31 35 0 0 0
SMALL
GASTEIGER

@<TRIPOS>ATOM
      1 C          64.5138   91.6604   13.1636 C.ar    1  UNL1        0.0599
      2 C          63.5896   90.8651   12.2899 C.ar    1  UNL1        0.0955
      3 N          63.7307   91.3707   10.8848 N.ar    1  UNL1       -0.2292
      4 C          64.7420   92.4785   10.8900 C.ar    1  UNL1        0.1481
      5 C          65.2847   93.3473    9.7943 C.ar    1  UNL1        0.0488
      6 C          66.3114   94.3951   10.1071 C.ar    1  UNL1        0.0622
      7 CL         66.8541   95.2640    9.0113 Cl      1  UNL1       -0.0821
      8 C          66.7954   94.5742   11.5155 C.ar    1  UNL1        0.0305
      9 C          66.2527   93.7054   12.6112 C.ar    1  UNL1        0.0820
     10 N          65.2260   92.6575   12.2985 N.ar    1  UNL1       -0.2927
     11 C          64.6941   91.4887   14.6428 C.3     1  UNL1        0.0707
     12 C          66.0507   91.1773   15.2019 C.3     1  UNL1        0.1571
     13 S          66.9552   92.2909   15.6398 S.O2    1  UNL1       -0.0096
     14 O          68.0061   91.8142   14.6814 O.2     1  UNL1       -0.1730
     15 O          65.9043   92.7676   16.5982 O.2     1  UNL1       -0.1730
     16 C          69.3112   93.3844   15.6998 C.3     1  UNL1        0.0271
     17 C          67.8597   93.4045   16.0777 C.3     1  UNL1        0.1509
     18 C          62.6835   89.7584   12.7420 C.3     1  UNL1        0.1575
     19 N          62.1391   88.7799   11.7440 N.ar    1  UNL1       -0.2726
     20 C          61.2063   89.1001   10.6137 C.ar    1  UNL1        0.3318
     21 O          60.6542   90.4550   10.2831 O.2     1  UNL1       -0.2463
     22 N          60.9225   87.8275    9.8722 N.ar    1  UNL1       -0.2817
     23 C          61.6799   86.7207   10.5441 C.ar    1  UNL1        0.0827
     24 C          61.7821   85.2530   10.2520 C.ar    1  UNL1        0.0395
     25 C          62.6362   84.3739   11.1168 C.ar    1  UNL1        0.1005
     26 N          63.3880   84.9625   12.2736 N.ar    1  UNL1       -0.2407
     27 C          63.2859   86.4303   12.5657 C.ar    1  UNL1        0.1176
     28 C          62.4318   87.3094   11.7010 C.ar    1  UNL1        0.0992
     29 C          60.0369   87.6864    8.6699 C.3     1  UNL1        0.0900
     30 C          59.3502   88.2956    7.4835 C.3     1  UNL1        0.0246
     31 C          59.1895   86.8327    7.7735 C.3     1  UNL1        0.0246
@<TRIPOS>BOND
     1    16    17    1
     2    17    13    1
     3    13    14    2
     4    13    15    2
     5    13    12    1
     6    12    11    1
     7    11     1    1
     8     1     2   ar
     9     2    18    1
    10    18    19    1
    11    19    20   ar
    12    20    21    2
    13    20    22   ar
    14    22    29    1
    15    29    30    1
    16    30    31    1
    17    22    23   ar
    18    23    24   ar
    19    24    25   ar
    20    25    26   ar
    21    26    27   ar
    22    27    28   ar
    23     2     3   ar
    24     3     4   ar
    25     4     5   ar
    26     5     6   ar
    27     6     7    1
    28     6     8   ar
    29     8     9   ar
    30     9    10   ar
    31    10     1   ar
    32    28    19   ar
    33    10     4   ar
    34    31    29    1
    35    28    23   ar
