@<TRIPOS>MOLECULE
*****
 32 36 0 0 0
SMALL
GASTEIGER

@<TRIPOS>ATOM
      1 C          63.4660   89.8702   11.6044 C.ar    1  UNL1        0.0028
      2 C          63.7407   90.7582   10.4272 C.ar    1  UNL1        0.0002
      3 C          64.5205   92.0264   10.6102 C.ar    1  UNL1        0.0029
      4 C          65.0255   92.4066   11.9705 C.ar    1  UNL1        0.0349
      5 C          65.8053   93.6749   12.1535 C.ar    1  UNL1        0.1535
      6 N          66.3104   94.0551   13.5138 N.ar    1  UNL1       -0.1329
      7 N          66.0356   93.1670   14.6911 N.ar    1  UNL1       -0.1452
      8 C          65.2558   91.8988   14.5080 C.ar    1  UNL1        0.1222
      9 C          64.7508   91.5186   13.1477 C.ar    1  UNL1        0.0237
     10 C          63.9710   90.2504   12.9647 C.ar    1  UNL1        0.0018
     11 C          62.7673   85.1103   13.0320 C.ar    1  UNL1        0.1761
     12 N          63.8807   85.7490   13.8081 N.ar    1  UNL1       -0.0617
     13 O          64.0290   87.1623   13.3281 O.2     1  UNL1       -0.3522
     14 C          63.0072   87.3971   12.2553 C.ar    1  UNL1        0.1777
     15 C          62.6861   88.6019   11.4214 C.ar    1  UNL1        0.0333
     16 C          61.5853   88.5385   10.4045 C.ar    1  UNL1       -0.0188
     17 C          61.2642   89.7432    9.5706 C.3     1  UNL1        0.0311
     18 C          60.8055   87.2702   10.2215 C.ar    1  UNL1       -0.0040
     19 C          61.1266   86.0654   11.0554 C.ar    1  UNL1        0.0057
     20 C          62.2275   86.1289   12.0723 C.ar    1  UNL1        0.0721
     21 C          62.4999   81.1699   12.6430 C.3     1  UNL1        0.0950
     22 C          62.9878   82.5797   12.4869 C.2     1  UNL1        0.2277
     23 O          64.1842   82.8686   11.6294 O.2     1  UNL1       -0.2747
     24 N          62.2794   83.7005   13.1882 N.am    1  UNL1       -0.2667
     25 H          61.4942   83.5109   13.7509 H       1  UNL1        0.1563
     26 N          66.0801   94.5629   10.9763 N.pl3   1  UNL1       -0.2884
     27 C          65.3439   95.8614   10.8284 C.3     1  UNL1        0.1242
     28 C          65.6187   96.7495    9.6511 C.3     1  UNL1        0.1636
     29 O          66.6296   96.3389    8.6218 O.3     1  UNL1       -0.3502
     30 C          67.3657   95.0404    8.7697 C.3     1  UNL1        0.1618
     31 C          67.0910   94.1524    9.9469 C.3     1  UNL1        0.1039
     32 C          67.8271   92.8538   10.0948 C.3     1  UNL1        0.0241
@<TRIPOS>BOND
     1    21    22    1
     2    22    23    2
     3    22    24   am
     4    24    11    1
     5    11    12   ar
     6    12    13   ar
     7    13    14   ar
     8    14    15   ar
     9    15     1    1
    10     1     2   ar
    11     2     3   ar
    12     3     4   ar
    13     4     5   ar
    14     5    26    1
    15    26    27    1
    16    27    28    1
    17    28    29    1
    18    29    30    1
    19    30    31    1
    20    31    32    1
    21     5     6   ar
    22     6     7   ar
    23     7     8   ar
    24     8     9   ar
    25     9    10   ar
    26    15    16   ar
    27    16    17    1
    28    16    18   ar
    29    18    19   ar
    30    19    20   ar
    31    20    11   ar
    32    20    14   ar
    33    10     1   ar
    34     9     4   ar
    35    31    26    1
    36    24    25    1
@<TRIPOS>MOLECULE
*****
 32 36 0 0 0
SMALL
GASTEIGER

@<TRIPOS>ATOM
      1 C          63.9446   88.8665   13.9752 C.ar    1  UNL1        0.0028
      2 C          64.2141   87.4781   14.4748 C.ar    1  UNL1        0.0002
      3 C          63.7718   86.2923   13.6698 C.ar    1  UNL1        0.0029
      4 C          63.0598   86.4949   12.3652 C.ar    1  UNL1        0.0349
      5 C          62.6175   85.3090   11.5601 C.ar    1  UNL1        0.1535
      6 N          61.9055   85.5115   10.2555 N.ar    1  UNL1       -0.1329
      7 N          61.6360   86.9000    9.7558 N.ar    1  UNL1       -0.1452
      8 C          62.0784   88.0858   10.5609 C.ar    1  UNL1        0.1222
      9 C          62.7903   87.8833   11.8655 C.ar    1  UNL1        0.0237
     10 C          63.2326   89.0691   12.6705 C.ar    1  UNL1        0.0018
     11 C          66.9968   92.8365   14.3008 C.ar    1  UNL1        0.1761
     12 N          67.2243   92.0838   13.0236 N.ar    1  UNL1       -0.0617
     13 O          66.2810   90.9177   12.9984 O.2     1  UNL1       -0.3522
     14 C          65.4706   90.9498   14.2602 C.ar    1  UNL1        0.1777
     15 C          64.3869   90.0524   14.7802 C.ar    1  UNL1        0.0333
     16 C          63.7457   90.3409   16.1052 C.ar    1  UNL1       -0.0188
     17 C          62.6620   89.4435   16.6252 C.3     1  UNL1        0.0311
     18 C          64.1880   91.5268   16.9102 C.ar    1  UNL1       -0.0040
     19 C          65.2717   92.4242   16.3902 C.ar    1  UNL1        0.0057
     20 C          65.9130   92.1357   15.0652 C.ar    1  UNL1        0.0721
     21 C          69.5350   95.2167   16.2092 C.3     1  UNL1        0.0950
     22 C          68.8065   93.9803   15.7727 C.2     1  UNL1        0.2277
     23 O          69.1594   92.6512   16.3718 O.2     1  UNL1       -0.2747
     24 N          67.7253   94.0729   14.7372 N.am    1  UNL1       -0.2667
     25 H          67.4937   94.9453   14.3441 H       1  UNL1        0.1563
     26 N          62.8870   83.9206   12.0598 N.pl3   1  UNL1       -0.2884
     27 C          62.3382   83.4805   13.3846 C.3     1  UNL1        0.1242
     28 C          62.6078   82.0920   13.8843 C.3     1  UNL1        0.1636
     29 O          63.4262   81.1437   13.0591 O.3     1  UNL1       -0.3502
     30 C          63.9750   81.5838   11.7343 C.3     1  UNL1        0.1618
     31 C          63.7054   82.9722   11.2346 C.3     1  UNL1        0.1039
     32 C          64.2542   83.4123    9.9098 C.3     1  UNL1        0.0241
@<TRIPOS>BOND
     1    21    22    1
     2    22    23    2
     3    22    24   am
     4    24    11    1
     5    11    12   ar
     6    12    13   ar
     7    13    14   ar
     8    14    15   ar
     9    15     1    1
    10     1     2   ar
    11     2     3   ar
    12     3     4   ar
    13     4     5   ar
    14     5    26    1
    15    26    27    1
    16    27    28    1
    17    28    29    1
    18    29    30    1
    19    30    31    1
    20    31    32    1
    21     5     6   ar
    22     6     7   ar
    23     7     8   ar
    24     8     9   ar
    25     9    10   ar
    26    15    16   ar
    27    16    17    1
    28    16    18   ar
    29    18    19   ar
    30    19    20   ar
    31    20    11   ar
    32    20    14   ar
    33    10     1   ar
    34     9     4   ar
    35    31    26    1
    36    24    25    1
@<TRIPOS>MOLECULE
*****
 32 36 0 0 0
SMALL
GASTEIGER

@<TRIPOS>ATOM
      1 C          63.7985   89.0971   13.7027 C.ar    1  UNL1        0.0028
      2 C          63.0023   89.4279   12.4753 C.ar    1  UNL1        0.0002
      3 C          62.4809   88.3268   11.6003 C.ar    1  UNL1        0.0029
      4 C          62.7558   86.8949   11.9526 C.ar    1  UNL1        0.0349
      5 C          62.2344   85.7938   11.0775 C.ar    1  UNL1        0.1535
      6 N          62.5092   84.3619   11.4299 N.ar    1  UNL1       -0.1329
      7 N          63.3055   84.0312   12.6573 N.ar    1  UNL1       -0.1452
      8 C          63.8269   85.1323   13.5324 C.ar    1  UNL1        0.1222
      9 C          63.5520   86.5641   13.1800 C.ar    1  UNL1        0.0237
     10 C          64.0734   87.6652   14.0550 C.ar    1  UNL1        0.0018
     11 C          66.9880   92.9408   14.1884 C.ar    1  UNL1        0.1761
     12 N          67.1242   92.2928   12.8425 N.ar    1  UNL1       -0.0617
     13 O          66.1444   91.1592   12.7726 O.2     1  UNL1       -0.3522
     14 C          65.4027   91.1066   14.0753 C.ar    1  UNL1        0.1777
     15 C          64.3199   90.1982   14.5778 C.ar    1  UNL1        0.0333
     16 C          63.7585   90.3910   15.9553 C.ar    1  UNL1       -0.0188
     17 C          62.6757   89.4827   16.4578 C.3     1  UNL1        0.0311
     18 C          64.2799   91.4921   16.8304 C.ar    1  UNL1       -0.0040
     19 C          65.3627   92.4004   16.3279 C.ar    1  UNL1        0.0057
     20 C          65.9241   92.2076   14.9503 C.ar    1  UNL1        0.0721
     21 C          69.6034   95.1002   16.2491 C.3     1  UNL1        0.0950
     22 C          68.8142   93.9254   15.7523 C.2     1  UNL1        0.2277
     23 O          69.0619   92.5603   16.3225 O.2     1  UNL1       -0.2747
     24 N          67.7773   94.1156   14.6852 N.am    1  UNL1       -0.2667
     25 H          67.6147   95.0116   14.3109 H       1  UNL1        0.1563
     26 N          61.4381   86.1246    9.8501 N.pl3   1  UNL1       -0.2884
     27 C          60.1725   86.9208    9.9692 C.3     1  UNL1        0.1242
     28 C          59.3763   87.2516    8.7417 C.3     1  UNL1        0.1636
     29 O          59.8457   86.7862    7.3952 O.3     1  UNL1       -0.3502
     30 C          61.1113   85.9900    7.2762 C.3     1  UNL1        0.1618
     31 C          61.9076   85.6592    8.5036 C.3     1  UNL1        0.1039
     32 C          63.1732   84.8630    8.3845 C.3     1  UNL1        0.0241
@<TRIPOS>BOND
     1    21    22    1
     2    22    23    2
     3    22    24   am
     4    24    11    1
     5    11    12   ar
     6    12    13   ar
     7    13    14   ar
     8    14    15   ar
     9    15     1    1
    10     1     2   ar
    11     2     3   ar
    12     3     4   ar
    13     4     5   ar
    14     5    26    1
    15    26    27    1
    16    27    28    1
    17    28    29    1
    18    29    30    1
    19    30    31    1
    20    31    32    1
    21     5     6   ar
    22     6     7   ar
    23     7     8   ar
    24     8     9   ar
    25     9    10   ar
    26    15    16   ar
    27    16    17    1
    28    16    18   ar
    29    18    19   ar
    30    19    20   ar
    31    20    11   ar
    32    20    14   ar
    33    10     1   ar
    34     9     4   ar
    35    31    26    1
    36    24    25    1
