@<TRIPOS>MOLECULE
*****
 29 33 0 0 0
SMALL
GASTEIGER

@<TRIPOS>ATOM
      1 C          63.7328   87.4755   15.6742 C.ar    1  UNL1        0.2595
      2 N          64.6672   88.3940   14.9442 N.ar    1  UNL1       -0.1932
      3 C          64.2591   89.8056   15.2455 C.ar    1  UNL1        0.1826
      4 N          63.0724   89.7594   16.1618 N.ar    1  UNL1       -0.0605
      5 O          62.7471   88.3193   16.4267 O.2     1  UNL1       -0.3353
      6 C          64.9215   91.0457   14.7223 C.3     1  UNL1        0.0943
      7 C          65.4372   92.1857   15.5496 C.3     1  UNL1        0.1502
      8 O          66.0188   93.2080   14.6187 O.3     1  UNL1       -0.3514
      9 C          65.8625   92.6998   13.2161 C.3     1  UNL1        0.1379
     10 C          65.1843   91.3634   13.2802 C.3     1  UNL1        0.0443
     11 C          66.3064   93.4044   11.9685 C.ar    1  UNL1        0.0046
     12 C          66.9074   92.6217   10.8387 C.ar    1  UNL1       -0.0011
     13 C          67.3513   93.3262    9.5911 C.ar    1  UNL1        0.0111
     14 C          67.1944   94.8133    9.4732 C.ar    1  UNL1        0.0577
     15 CL         67.6383   95.5178    8.2256 Cl      1  UNL1       -0.0822
     16 C          66.5934   95.5959   10.6030 C.ar    1  UNL1        0.0111
     17 C          66.1495   94.8914   11.8506 C.ar    1  UNL1       -0.0011
     18 C          63.7763   85.9762   15.6551 C.3     1  UNL1        0.1984
     19 C          63.4558   80.4087   13.7336 C.3     1  UNL1        0.1322
     20 N          63.2909   81.5309   12.7521 N.ar    1  UNL1       -0.3020
     21 C          63.0440   81.3853   11.2797 C.ar    1  UNL1        0.1803
     22 N          62.9444   82.7601   10.6882 N.ar    1  UNL1       -0.2047
     23 C          63.1297   83.7554   11.7950 C.ar    1  UNL1        0.1861
     24 N          63.1311   85.2554   11.8062 N.ar    1  UNL1       -0.2046
     25 C          63.3466   85.9956   13.0929 C.ar    1  UNL1        0.1828
     26 N          63.5608   85.2360   14.3683 N.ar    1  UNL1       -0.2675
     27 C          63.5594   83.7359   14.3572 C.ar    1  UNL1        0.2814
     28 O          63.7735   82.9763   15.6328 O.2     1  UNL1       -0.2652
     29 C          63.3438   82.9957   13.0705 C.ar    1  UNL1        0.1543
@<TRIPOS>BOND
     1    19    20    1
     2    20    21   ar
     3    21    22   ar
     4    22    23   ar
     5    23    24   ar
     6    24    25   ar
     7    25    26   ar
     8    26    18    1
     9    18     1    1
    10     1     2   ar
    11     2     3   ar
    12     6     3    1
    13     6     7    1
    14     7     8    1
    15     8     9    1
    16     9    11    1
    17    11    12   ar
    18    12    13   ar
    19    13    14   ar
    20    14    15    1
    21    14    16   ar
    22    16    17   ar
    23     9    10    1
    24     3     4   ar
    25     4     5   ar
    26    26    27   ar
    27    27    28    2
    28    27    29   ar
    29    29    20   ar
    30    29    23   ar
    31     5     1   ar
    32    10     6    1
    33    17    11   ar
@<TRIPOS>MOLECULE
*****
 29 33 0 0 0
SMALL
GASTEIGER

@<TRIPOS>ATOM
      1 C          61.1923   88.5353    9.9206 C.ar    1  UNL1        0.2595
      2 N          62.5741   88.9926   10.2831 N.ar    1  UNL1       -0.1932
      3 C          62.4802   90.4067   10.7747 C.ar    1  UNL1        0.1826
      4 N          61.0405   90.8233   10.7159 N.ar    1  UNL1       -0.0605
      5 O          60.2445   89.6667   10.1880 O.2     1  UNL1       -0.3353
      6 C          63.6252   91.2552   11.2429 C.3     1  UNL1        0.0943
      7 C          64.1563   92.4773   10.5541 C.3     1  UNL1        0.1502
      8 O          65.2994   93.0080   11.3675 O.3     1  UNL1       -0.3514
      9 C          65.4748   92.1139   12.5590 C.3     1  UNL1        0.1379
     10 C          64.4401   91.0306   12.4820 C.3     1  UNL1        0.0443
     11 C          66.5042   92.2748   13.6381 C.ar    1  UNL1        0.0046
     12 C          66.0941   92.7478   15.0013 C.ar    1  UNL1       -0.0011
     13 C          67.1234   92.9087   16.0804 C.ar    1  UNL1        0.0111
     14 C          68.5629   92.5967   15.7964 C.ar    1  UNL1        0.0577
     15 CL         69.5922   92.7577   16.8755 Cl      1  UNL1       -0.0822
     16 C          68.9730   92.1238   14.4333 C.ar    1  UNL1        0.0111
     17 C          67.9436   91.9629   13.3542 C.ar    1  UNL1       -0.0011
     18 C          60.8232   87.1839    9.3846 C.3     1  UNL1        0.1984
     19 C          63.0319   83.7902   13.6738 C.3     1  UNL1        0.1322
     20 N          63.4553   83.5436   12.2561 N.ar    1  UNL1       -0.3020
     21 C          64.4154   82.4881   11.7935 C.ar    1  UNL1        0.1803
     22 N          64.5464   82.6014   10.3035 N.ar    1  UNL1       -0.2047
     23 C          63.6672   83.7270    9.8452 C.ar    1  UNL1        0.1861
     24 N          63.3935   84.2970    8.4850 N.ar    1  UNL1       -0.2046
     25 C          62.4455   85.4493    8.3315 C.ar    1  UNL1        0.1828
     26 N          61.7712   86.0315    9.5381 N.ar    1  UNL1       -0.2675
     27 C          62.0449   85.4616   10.8985 C.ar    1  UNL1        0.2814
     28 O          61.3705   86.0440   12.1052 O.2     1  UNL1       -0.2652
     29 C          62.9929   84.3093   11.0520 C.ar    1  UNL1        0.1543
@<TRIPOS>BOND
     1    19    20    1
     2    20    21   ar
     3    21    22   ar
     4    22    23   ar
     5    23    24   ar
     6    24    25   ar
     7    25    26   ar
     8    26    18    1
     9    18     1    1
    10     1     2   ar
    11     2     3   ar
    12     6     3    1
    13     6     7    1
    14     7     8    1
    15     8     9    1
    16     9    11    1
    17    11    12   ar
    18    12    13   ar
    19    13    14   ar
    20    14    15    1
    21    14    16   ar
    22    16    17   ar
    23     9    10    1
    24     3     4   ar
    25     4     5   ar
    26    26    27   ar
    27    27    28    2
    28    27    29   ar
    29    29    20   ar
    30    29    23   ar
    31     5     1   ar
    32    10     6    1
    33    17    11   ar
@<TRIPOS>MOLECULE
*****
 29 33 0 0 0
SMALL
GASTEIGER

@<TRIPOS>ATOM
      1 C          62.8555   85.2062   16.1932 C.ar    1  UNL1        0.2595
      2 N          63.3120   86.3873   15.3890 N.ar    1  UNL1       -0.1932
      3 C          63.2288   87.6033   16.2633 C.ar    1  UNL1        0.1826
      4 N          62.7209   87.1738   17.6077 N.ar    1  UNL1       -0.0605
      5 O          62.4902   85.6923   17.5644 O.2     1  UNL1       -0.3353
      6 C          63.5901   89.0032   15.8632 C.3     1  UNL1        0.0943
      7 C          63.4071   90.2344   16.7003 C.3     1  UNL1        0.1502
      8 O          63.9016   91.4097   15.9104 O.3     1  UNL1       -0.3514
      9 C          64.3903   90.9049   14.5851 C.3     1  UNL1        0.1379
     10 C          64.1977   89.4176   14.5560 C.3     1  UNL1        0.0443
     11 C          64.9697   91.7407   13.4825 C.ar    1  UNL1        0.0046
     12 C          66.0423   92.7443   13.7867 C.ar    1  UNL1       -0.0011
     13 C          66.6218   93.5801   12.6841 C.ar    1  UNL1        0.0111
     14 C          66.1287   93.4124   11.2775 C.ar    1  UNL1        0.0577
     15 CL         66.7082   94.2482   10.1749 Cl      1  UNL1       -0.0822
     16 C          65.0561   92.4088   10.9733 C.ar    1  UNL1        0.0111
     17 C          64.4767   91.5731   12.0759 C.ar    1  UNL1       -0.0011
     18 C          62.7780   83.7880   15.7108 C.3     1  UNL1        0.1984
     19 C          62.1342   85.6493   10.1508 C.3     1  UNL1        0.1322
     20 N          63.0276   84.4771   10.4300 N.ar    1  UNL1       -0.3020
     21 C          63.8040   83.6977    9.4103 C.ar    1  UNL1        0.1803
     22 N          64.5576   82.6174   10.1280 N.ar    1  UNL1       -0.2047
     23 C          64.2469   82.7291   11.5912 C.ar    1  UNL1        0.1861
     24 N          64.7029   81.9328   12.7777 N.ar    1  UNL1       -0.2046
     25 C          64.2133   82.2858   14.1509 C.ar    1  UNL1        0.1828
     26 N          63.2677   83.4350   14.3376 N.ar    1  UNL1       -0.2675
     27 C          62.8116   84.2315   13.1510 C.ar    1  UNL1        0.2814
     28 O          61.8660   85.3808   13.3377 O.2     1  UNL1       -0.2652
     29 C          63.3013   83.8785   11.7778 C.ar    1  UNL1        0.1543
@<TRIPOS>BOND
     1    19    20    1
     2    20    21   ar
     3    21    22   ar
     4    22    23   ar
     5    23    24   ar
     6    24    25   ar
     7    25    26   ar
     8    26    18    1
     9    18     1    1
    10     1     2   ar
    11     2     3   ar
    12     6     3    1
    13     6     7    1
    14     7     8    1
    15     8     9    1
    16     9    11    1
    17    11    12   ar
    18    12    13   ar
    19    13    14   ar
    20    14    15    1
    21    14    16   ar
    22    16    17   ar
    23     9    10    1
    24     3     4   ar
    25     4     5   ar
    26    26    27   ar
    27    27    28    2
    28    27    29   ar
    29    29    20   ar
    30    29    23   ar
    31     5     1   ar
    32    10     6    1
    33    17    11   ar
@<TRIPOS>MOLECULE
*****
 29 33 0 0 0
SMALL
GASTEIGER

@<TRIPOS>ATOM
      1 C          63.0542   85.4237   16.2650 C.ar    1  UNL1        0.2595
      2 N          63.5190   86.5770   15.4263 N.ar    1  UNL1       -0.1932
      3 C          63.3214   87.8355   16.2183 C.ar    1  UNL1        0.1826
      4 N          62.7343   87.4598   17.5465 N.ar    1  UNL1       -0.0605
      5 O          62.5692   85.9692   17.5754 O.2     1  UNL1       -0.3353
      6 C          63.6526   89.2256   15.7621 C.3     1  UNL1        0.0943
      7 C          63.4478   90.4847   16.5512 C.3     1  UNL1        0.1502
      8 O          63.9154   91.6378   15.7136 O.3     1  UNL1       -0.3514
      9 C          64.4090   91.0915   14.4068 C.3     1  UNL1        0.1379
     10 C          64.2466   89.6006   14.4368 C.3     1  UNL1        0.0443
     11 C          64.9671   91.8949   13.2697 C.ar    1  UNL1        0.0046
     12 C          66.0245   92.9269   13.5286 C.ar    1  UNL1       -0.0011
     13 C          66.5826   93.7303   12.3915 C.ar    1  UNL1        0.0111
     14 C          66.0834   93.5018   10.9956 C.ar    1  UNL1        0.0577
     15 CL         66.6415   94.3052    9.8585 Cl      1  UNL1       -0.0822
     16 C          65.0259   92.4699   10.7368 C.ar    1  UNL1        0.0111
     17 C          64.4679   91.6664   11.8739 C.ar    1  UNL1       -0.0011
     18 C          63.0713   83.9784   15.8638 C.3     1  UNL1        0.1984
     19 C          62.3735   79.2907   12.3523 C.3     1  UNL1        0.1322
     20 N          62.9199   80.5622   11.7735 N.ar    1  UNL1       -0.3020
     21 C          63.3231   80.7789   10.3451 C.ar    1  UNL1        0.1803
     22 N          63.8113   82.1908   10.2103 N.ar    1  UNL1       -0.2047
     23 C          63.7099   82.8467   11.5554 C.ar    1  UNL1        0.1861
     24 N          64.0480   84.2304   12.0254 N.ar    1  UNL1       -0.2046
     25 C          63.8351   84.6077   13.4615 C.ar    1  UNL1        0.1828
     26 N          63.2842   83.6012   14.4276 N.ar    1  UNL1       -0.2675
     27 C          62.9461   82.2174   13.9576 C.ar    1  UNL1        0.2814
     28 O          62.3951   81.2109   14.9238 O.2     1  UNL1       -0.2652
     29 C          63.1589   81.8401   12.5215 C.ar    1  UNL1        0.1543
@<TRIPOS>BOND
     1    19    20    1
     2    20    21   ar
     3    21    22   ar
     4    22    23   ar
     5    23    24   ar
     6    24    25   ar
     7    25    26   ar
     8    26    18    1
     9    18     1    1
    10     1     2   ar
    11     2     3   ar
    12     6     3    1
    13     6     7    1
    14     7     8    1
    15     8     9    1
    16     9    11    1
    17    11    12   ar
    18    12    13   ar
    19    13    14   ar
    20    14    15    1
    21    14    16   ar
    22    16    17   ar
    23     9    10    1
    24     3     4   ar
    25     4     5   ar
    26    26    27   ar
    27    27    28    2
    28    27    29   ar
    29    29    20   ar
    30    29    23   ar
    31     5     1   ar
    32    10     6    1
    33    17    11   ar
@<TRIPOS>MOLECULE
*****
 29 33 0 0 0
SMALL
GASTEIGER

@<TRIPOS>ATOM
      1 C          63.7155   87.9174   15.3092 C.ar    1  UNL1        0.2595
      2 N          64.8692   88.5377   14.5785 N.ar    1  UNL1       -0.1932
      3 C          64.6832   90.0260   14.5967 C.ar    1  UNL1        0.1826
      4 N          63.4145   90.3255   15.3388 N.ar    1  UNL1       -0.0605
      5 O          62.8165   89.0223   15.7791 O.2     1  UNL1       -0.3353
      6 C          65.6043   91.0373   13.9810 C.3     1  UNL1        0.0943
      7 C          66.9623   91.4188   14.4911 C.3     1  UNL1        0.1502
      8 O          67.5262   92.4619   13.5725 O.3     1  UNL1       -0.3514
      9 C          66.5168   92.7251   12.4947 C.3     1  UNL1        0.1379
     10 C          65.3289   91.8446   12.7472 C.3     1  UNL1        0.0443
     11 C          66.6686   93.6979   11.3631 C.ar    1  UNL1        0.0046
     12 C          67.3229   93.2650   10.0846 C.ar    1  UNL1       -0.0011
     13 C          67.4747   94.2378    8.9530 C.ar    1  UNL1        0.0111
     14 C          66.9722   95.6435    9.0998 C.ar    1  UNL1        0.0577
     15 CL         67.1239   96.6163    7.9682 Cl      1  UNL1       -0.0822
     16 C          66.3179   96.0764   10.3783 C.ar    1  UNL1        0.0111
     17 C          66.1661   95.1036   11.5099 C.ar    1  UNL1       -0.0011
     18 C          63.4989   86.4498   15.5311 C.3     1  UNL1        0.1984
     19 C          62.3286   85.6774    9.8017 C.3     1  UNL1        0.1322
     20 N          63.1826   84.6714   10.5150 N.ar    1  UNL1       -0.3020
     21 C          63.7942   83.4444    9.9064 C.ar    1  UNL1        0.1803
     22 N          64.5646   82.7305   10.9773 N.ar    1  UNL1       -0.2047
     23 C          64.4291   83.5164   12.2478 C.ar    1  UNL1        0.1861
     24 N          64.9731   83.2947   13.6280 N.ar    1  UNL1       -0.2046
     25 C          64.6630   84.2725   14.7224 C.ar    1  UNL1        0.1828
     26 N          63.8090   85.4719   14.4366 N.ar    1  UNL1       -0.2675
     27 C          63.2649   85.6937   13.0564 C.ar    1  UNL1        0.2814
     28 O          62.4108   86.8933   12.7707 O.2     1  UNL1       -0.2652
     29 C          63.5750   84.7159   11.9620 C.ar    1  UNL1        0.1543
@<TRIPOS>BOND
     1    19    20    1
     2    20    21   ar
     3    21    22   ar
     4    22    23   ar
     5    23    24   ar
     6    24    25   ar
     7    25    26   ar
     8    26    18    1
     9    18     1    1
    10     1     2   ar
    11     2     3   ar
    12     6     3    1
    13     6     7    1
    14     7     8    1
    15     8     9    1
    16     9    11    1
    17    11    12   ar
    18    12    13   ar
    19    13    14   ar
    20    14    15    1
    21    14    16   ar
    22    16    17   ar
    23     9    10    1
    24     3     4   ar
    25     4     5   ar
    26    26    27   ar
    27    27    28    2
    28    27    29   ar
    29    29    20   ar
    30    29    23   ar
    31     5     1   ar
    32    10     6    1
    33    17    11   ar
@<TRIPOS>MOLECULE
*****
 29 33 0 0 0
SMALL
GASTEIGER

@<TRIPOS>ATOM
      1 C          63.5152   85.8500   14.3484 C.ar    1  UNL1        0.2595
      2 N          63.9211   87.1426   13.7049 N.ar    1  UNL1       -0.1932
      3 C          63.9558   88.1993   14.7689 C.ar    1  UNL1        0.1826
      4 N          63.5714   87.5597   16.0701 N.ar    1  UNL1       -0.0605
      5 O          63.2991   86.1077   15.8102 O.2     1  UNL1       -0.3353
      6 C          64.3124   89.6424   14.5672 C.3     1  UNL1        0.0943
      7 C          64.2273   90.7246   15.6023 C.3     1  UNL1        0.1502
      8 O          64.6789   92.0075   14.9698 O.3     1  UNL1       -0.3514
      9 C          65.0431   91.7182   13.5437 C.3     1  UNL1        0.1379
     10 C          64.8166   90.2565   13.2949 C.3     1  UNL1        0.0443
     11 C          65.5456   92.7156   12.5424 C.ar    1  UNL1        0.0046
     12 C          65.4717   92.4084   11.0760 C.ar    1  UNL1       -0.0011
     13 C          65.9742   93.4057   10.0746 C.ar    1  UNL1        0.0111
     14 C          66.5506   94.7102   10.5395 C.ar    1  UNL1        0.0577
     15 CL         67.0530   95.7075    9.5381 Cl      1  UNL1       -0.0822
     16 C          66.6244   95.0174   12.0058 C.ar    1  UNL1        0.0111
     17 C          66.1219   94.0201   13.0072 C.ar    1  UNL1       -0.0011
     18 C          63.3538   84.5311   13.6524 C.3     1  UNL1        0.1984
     19 C          60.3531   86.9392    9.1815 C.3     1  UNL1        0.1322
     20 N          61.4421   85.9518    8.8826 N.ar    1  UNL1       -0.3020
     21 C          61.8666   85.4932    7.5190 C.ar    1  UNL1        0.1803
     22 N          62.9846   84.5076    7.6885 N.ar    1  UNL1       -0.2047
     23 C          63.2510   84.3571    9.1569 C.ar    1  UNL1        0.1861
     24 N          64.2386   83.5226    9.9174 N.ar    1  UNL1       -0.2046
     25 C          64.2728   83.5806   11.4159 C.ar    1  UNL1        0.1828
     26 N          63.3195   84.4731   12.1539 N.ar    1  UNL1       -0.2675
     27 C          62.3319   85.3076   11.3934 C.ar    1  UNL1        0.2814
     28 O          61.3786   86.2002   12.1315 O.2     1  UNL1       -0.2652
     29 C          62.2977   85.2496    9.8949 C.ar    1  UNL1        0.1543
@<TRIPOS>BOND
     1    19    20    1
     2    20    21   ar
     3    21    22   ar
     4    22    23   ar
     5    23    24   ar
     6    24    25   ar
     7    25    26   ar
     8    26    18    1
     9    18     1    1
    10     1     2   ar
    11     2     3   ar
    12     6     3    1
    13     6     7    1
    14     7     8    1
    15     8     9    1
    16     9    11    1
    17    11    12   ar
    18    12    13   ar
    19    13    14   ar
    20    14    15    1
    21    14    16   ar
    22    16    17   ar
    23     9    10    1
    24     3     4   ar
    25     4     5   ar
    26    26    27   ar
    27    27    28    2
    28    27    29   ar
    29    29    20   ar
    30    29    23   ar
    31     5     1   ar
    32    10     6    1
    33    17    11   ar
@<TRIPOS>MOLECULE
*****
 29 33 0 0 0
SMALL
GASTEIGER

@<TRIPOS>ATOM
      1 C          58.8539   91.4128    4.9014 C.ar    1  UNL1        0.2595
      2 N          59.7924   90.5186    5.6560 N.ar    1  UNL1       -0.1932
      3 C          58.9700   89.5875    6.4967 C.ar    1  UNL1        0.1826
      4 N          57.5233   89.9062    6.2615 N.ar    1  UNL1       -0.0605
      5 O          57.4515   91.0343    5.2756 O.2     1  UNL1       -0.3353
      6 C          59.5012   88.5243    7.4119 C.3     1  UNL1        0.0943
      7 C          59.2103   87.0556    7.3196 C.3     1  UNL1        0.1502
      8 O          59.9458   86.3668    8.4307 O.3     1  UNL1       -0.3514
      9 C          60.6912   87.4096    9.2096 C.3     1  UNL1        0.1379
     10 C          60.4164   88.7430    8.5800 C.3     1  UNL1        0.0443
     11 C          61.5590   87.1624   10.4079 C.ar    1  UNL1        0.0046
     12 C          62.2253   88.3134   11.1016 C.ar    1  UNL1       -0.0011
     13 C          63.0931   88.0663   12.2998 C.ar    1  UNL1        0.0111
     14 C          63.2947   86.6681   12.8043 C.ar    1  UNL1        0.0577
     15 CL         64.1626   86.4209   14.0025 Cl      1  UNL1       -0.0822
     16 C          62.6285   85.5171   12.1106 C.ar    1  UNL1        0.0111
     17 C          61.7607   85.7643   10.9123 C.ar    1  UNL1       -0.0011
     18 C          59.2485   92.4954    3.9410 C.3     1  UNL1        0.1984
     19 C          62.2354   95.3061   -0.2982 C.3     1  UNL1        0.1322
     20 N          62.9333   94.2551    0.5132 N.ar    1  UNL1       -0.3020
     21 C          64.3619   93.8252    0.3576 C.ar    1  UNL1        0.1803
     22 N          64.6366   92.7538    1.3708 N.ar    1  UNL1       -0.2047
     23 C          63.3778   92.5215    2.1527 C.ar    1  UNL1        0.1861
     24 N          63.0541   91.5850    3.2788 N.ar    1  UNL1       -0.2046
     25 C          61.6777   91.5764    3.8749 C.ar    1  UNL1        0.1828
     26 N          60.6250   92.5041    3.3449 N.ar    1  UNL1       -0.2675
     27 C          60.9486   93.4406    2.2187 C.ar    1  UNL1        0.2814
     28 O          59.8958   94.3684    1.6887 O.2     1  UNL1       -0.2652
     29 C          62.3251   93.4493    1.6226 C.ar    1  UNL1        0.1543
@<TRIPOS>BOND
     1    19    20    1
     2    20    21   ar
     3    21    22   ar
     4    22    23   ar
     5    23    24   ar
     6    24    25   ar
     7    25    26   ar
     8    26    18    1
     9    18     1    1
    10     1     2   ar
    11     2     3   ar
    12     6     3    1
    13     6     7    1
    14     7     8    1
    15     8     9    1
    16     9    11    1
    17    11    12   ar
    18    12    13   ar
    19    13    14   ar
    20    14    15    1
    21    14    16   ar
    22    16    17   ar
    23     9    10    1
    24     3     4   ar
    25     4     5   ar
    26    26    27   ar
    27    27    28    2
    28    27    29   ar
    29    29    20   ar
    30    29    23   ar
    31     5     1   ar
    32    10     6    1
    33    17    11   ar
@<TRIPOS>MOLECULE
*****
 29 33 0 0 0
SMALL
GASTEIGER

@<TRIPOS>ATOM
      1 C          61.8043   93.4603    1.7225 C.ar    1  UNL1        0.2595
      2 N          61.6628   92.4952    2.8619 N.ar    1  UNL1       -0.1932
      3 C          60.2224   92.4798    3.2801 C.ar    1  UNL1        0.1826
      4 N          59.4737   93.4355    2.3991 N.ar    1  UNL1       -0.0605
      5 O          60.4514   94.0415    1.4364 O.2     1  UNL1       -0.3353
      6 C          59.6339   91.6538    4.3853 C.3     1  UNL1        0.0943
      7 C          58.1797   91.5672    4.7430 C.3     1  UNL1        0.1502
      8 O          58.0434   90.6293    5.9056 O.3     1  UNL1       -0.3514
      9 C          59.4133   90.1362    6.2665 C.3     1  UNL1        0.1379
     10 C          60.3963   90.7694    5.3269 C.3     1  UNL1        0.0443
     11 C          59.7424   89.1781    7.3727 C.ar    1  UNL1        0.0046
     12 C          60.4435   89.6678    8.6051 C.ar    1  UNL1       -0.0011
     13 C          60.7726   88.7097    9.7113 C.ar    1  UNL1        0.0111
     14 C          60.4007   87.2621    9.5853 C.ar    1  UNL1        0.0577
     15 CL         60.7298   86.3040   10.6915 Cl      1  UNL1       -0.0822
     16 C          59.6996   86.7724    8.3529 C.ar    1  UNL1        0.0111
     17 C          59.3705   87.7305    7.2466 C.ar    1  UNL1       -0.0011
     18 C          63.0756   93.7870    0.9965 C.3     1  UNL1        0.1984
     19 C          66.0158   96.8559   -3.0937 C.3     1  UNL1        0.1322
     20 N          64.8822   95.9706   -3.5194 N.ar    1  UNL1       -0.3020
     21 C          64.3970   95.7738   -4.9250 C.ar    1  UNL1        0.1803
     22 N          63.2496   94.8083   -4.8885 N.ar    1  UNL1       -0.2047
     23 C          63.0257   94.4084   -3.4602 C.ar    1  UNL1        0.1861
     24 N          62.0334   93.4829   -2.8208 N.ar    1  UNL1       -0.2046
     25 C          62.0501   93.2758   -1.3353 C.ar    1  UNL1        0.1828
     26 N          63.0589   93.9941   -0.4892 N.ar    1  UNL1       -0.2675
     27 C          64.0513   94.9197   -1.1285 C.ar    1  UNL1        0.2814
     28 O          65.0603   95.6380   -0.2823 O.2     1  UNL1       -0.2652
     29 C          64.0347   95.1267   -2.6141 C.ar    1  UNL1        0.1543
@<TRIPOS>BOND
     1    19    20    1
     2    20    21   ar
     3    21    22   ar
     4    22    23   ar
     5    23    24   ar
     6    24    25   ar
     7    25    26   ar
     8    26    18    1
     9    18     1    1
    10     1     2   ar
    11     2     3   ar
    12     6     3    1
    13     6     7    1
    14     7     8    1
    15     8     9    1
    16     9    11    1
    17    11    12   ar
    18    12    13   ar
    19    13    14   ar
    20    14    15    1
    21    14    16   ar
    22    16    17   ar
    23     9    10    1
    24     3     4   ar
    25     4     5   ar
    26    26    27   ar
    27    27    28    2
    28    27    29   ar
    29    29    20   ar
    30    29    23   ar
    31     5     1   ar
    32    10     6    1
    33    17    11   ar
@<TRIPOS>MOLECULE
*****
 29 33 0 0 0
SMALL
GASTEIGER

@<TRIPOS>ATOM
      1 C          59.6229   92.2568    4.2909 C.ar    1  UNL1        0.2595
      2 N          60.2643   91.2484    5.1973 N.ar    1  UNL1       -0.1932
      3 C          59.1749   90.4323    5.8273 C.ar    1  UNL1        0.1826
      4 N          57.8601   90.9363    5.3103 N.ar    1  UNL1       -0.0605
      5 O          58.1370   92.0639    4.3607 O.2     1  UNL1       -0.3353
      6 C          59.3665   89.3092    6.8032 C.3     1  UNL1        0.0943
      7 C          58.5385   88.0611    6.8847 C.3     1  UNL1        0.1502
      8 O          59.0801   87.2177    8.0006 O.3     1  UNL1       -0.3514
      9 C          60.2427   87.9445    8.6088 C.3     1  UNL1        0.1379
     10 C          60.4197   89.2372    7.8688 C.3     1  UNL1        0.0443
     11 C          61.0811   87.4632    9.7558 C.ar    1  UNL1        0.0046
     12 C          61.1351   86.0004   10.0832 C.ar    1  UNL1       -0.0011
     13 C          61.9735   85.5191   11.2302 C.ar    1  UNL1        0.0111
     14 C          62.7579   86.5005   12.0495 C.ar    1  UNL1        0.0577
     15 CL         63.5963   86.0192   13.1965 Cl      1  UNL1       -0.0822
     16 C          62.7039   87.9633   11.7221 C.ar    1  UNL1        0.0111
     17 C          61.8655   88.4446   10.5751 C.ar    1  UNL1       -0.0011
     18 C          60.3412   93.2787    3.4604 C.3     1  UNL1        0.1984
     19 C          63.8519   94.0642   -1.2141 C.3     1  UNL1        0.1322
     20 N          62.4158   93.6906   -1.4335 N.ar    1  UNL1       -0.3020
     21 C          61.7508   93.4875   -2.7626 C.ar    1  UNL1        0.1803
     22 N          60.3166   93.1259   -2.5130 N.ar    1  UNL1       -0.2047
     23 C          60.0952   93.1055   -1.0295 C.ar    1  UNL1        0.1861
     24 N          58.8799   92.8142   -0.2000 N.ar    1  UNL1       -0.2046
     25 C          58.9619   92.8720    1.2966 C.ar    1  UNL1        0.1828
     26 N          60.2592   93.2210    1.9637 N.ar    1  UNL1       -0.2675
     27 C          61.4746   93.5122    1.1342 C.ar    1  UNL1        0.2814
     28 O          62.7720   93.8613    1.8014 O.2     1  UNL1       -0.2652
     29 C          61.3926   93.4545   -0.3624 C.ar    1  UNL1        0.1543
@<TRIPOS>BOND
     1    19    20    1
     2    20    21   ar
     3    21    22   ar
     4    22    23   ar
     5    23    24   ar
     6    24    25   ar
     7    25    26   ar
     8    26    18    1
     9    18     1    1
    10     1     2   ar
    11     2     3   ar
    12     6     3    1
    13     6     7    1
    14     7     8    1
    15     8     9    1
    16     9    11    1
    17    11    12   ar
    18    12    13   ar
    19    13    14   ar
    20    14    15    1
    21    14    16   ar
    22    16    17   ar
    23     9    10    1
    24     3     4   ar
    25     4     5   ar
    26    26    27   ar
    27    27    28    2
    28    27    29   ar
    29    29    20   ar
    30    29    23   ar
    31     5     1   ar
    32    10     6    1
    33    17    11   ar
