@<TRIPOS>MOLECULE
*****
 35 38 0 0 0
SMALL
GASTEIGER

@<TRIPOS>ATOM
      1 C          64.1982   90.3214   15.0112 C.ar    1  UNL1        0.0503
      2 C          64.6120   89.1218   14.2114 C.ar    1  UNL1        0.0143
      3 C          64.3094   87.7425   14.7171 C.ar    1  UNL1       -0.0029
      4 C          63.5929   87.5627   16.0226 C.ar    1  UNL1       -0.0208
      5 C          63.1791   88.7623   16.8224 C.ar    1  UNL1       -0.0029
      6 C          63.4817   90.1416   16.3167 C.ar    1  UNL1        0.0143
      7 C          65.9243   92.1490   14.3551 C.2     1  UNL1        0.2322
      8 O          67.0453   91.2178   14.7104 O.2     1  UNL1       -0.2744
      9 N          64.5008   91.7008   14.5055 N.am    1  UNL1       -0.2836
     10 H          63.7651   92.3120   14.2723 H       1  UNL1        0.1549
     11 C          66.2270   93.5284   13.8494 C.3     1  UNL1        0.1315
     12 N          68.1044   92.8009    8.9682 N.pl3   1  UNL1       -0.3375
     13 C          67.4208   93.4063   10.1582 C.ar    1  UNL1        0.1564
     14 N          67.3248   92.7959   11.5250 N.ar    1  UNL1       -0.2283
     15 C          66.5578   93.7407   12.4019 C.ar    1  UNL1        0.0766
     16 C          66.1798   94.9352   11.5770 C.ar    1  UNL1        0.0533
     17 S          66.7131   94.7286   10.1904 S.2     1  UNL1       -0.0518
     18 H          68.5436   91.9233    9.0465 H       1  UNL1        0.1442
     19 H          68.1139   93.2812    8.1088 H       1  UNL1        0.1442
     20 C          63.2903   86.1833   16.5283 C.3     1  UNL1        0.0420
     21 C          63.0636   85.0619   15.5584 C.3     1  UNL1        0.0585
     22 C          62.4151   83.7454   15.8686 C.3     1  UNL1        0.0175
     23 C          62.3963   82.9299   14.6098 C.3     1  UNL1        0.0199
     24 C          63.0334   83.7423   13.5215 C.3     1  UNL1        0.0855
     25 N          63.4458   85.0599   14.1078 N.3     1  UNL1       -0.2971
     26 H          62.9677   85.8194   13.6229 H       1  UNL1        0.1233
     27 C          63.2244   83.3125   12.0972 C.3     1  UNL1        0.1470
     28 O          63.7503   81.9414   11.7916 O.3     1  UNL1       -0.3787
     29 H          63.8131   81.8259   10.8306 H       1  UNL1        0.2108
     30 C          62.8896   84.2538   10.9784 C.ar    1  UNL1        0.0055
     31 C          61.9168   85.3729   11.2056 C.ar    1  UNL1       -0.0019
     32 C          61.5819   86.3143   10.0869 C.ar    1  UNL1       -0.0002
     33 C          62.2197   86.1366    8.7409 C.ar    1  UNL1       -0.0000
     34 C          63.1924   85.0176    8.5137 C.ar    1  UNL1       -0.0002
     35 C          63.5273   84.0762    9.6325 C.ar    1  UNL1       -0.0019
@<TRIPOS>BOND
     1    12    13    1
     2    13    14   ar
     3    14    15   ar
     4    15    11    1
     5    11     7    1
     6     7     8    2
     7     7     9   am
     8     9     1    1
     9     1     2   ar
    10     2     3   ar
    11     3     4   ar
    12     4    20    1
    13    21    20    1
    14    21    22    1
    15    22    23    1
    16    24    23    1
    17    24    27    1
    18    27    28    1
    19    27    30    1
    20    30    31   ar
    21    31    32   ar
    22    32    33   ar
    23    33    34   ar
    24    34    35   ar
    25    24    25    1
    26     4     5   ar
    27     5     6   ar
    28    15    16   ar
    29    16    17   ar
    30    17    13   ar
    31     6     1   ar
    32    25    21    1
    33    35    30   ar
    34    12    18    1
    35    12    19    1
    36     9    10    1
    37    28    29    1
    38    25    26    1
@<TRIPOS>MOLECULE
*****
 35 38 0 0 0
SMALL
GASTEIGER

@<TRIPOS>ATOM
      1 C          63.7636   91.3333   11.3332 C.ar    1  UNL1        0.0503
      2 C          63.7171   90.2792   12.3993 C.ar    1  UNL1        0.0143
      3 C          62.9101   89.0328   12.1869 C.ar    1  UNL1       -0.0029
      4 C          62.1496   88.8405   10.9084 C.ar    1  UNL1       -0.0208
      5 C          62.1961   89.8945    9.8422 C.ar    1  UNL1       -0.0029
      6 C          63.0031   91.1410   10.0547 C.ar    1  UNL1        0.0143
      7 C          65.5187   92.6711   12.7043 C.2     1  UNL1        0.2322
      8 O          65.6598   91.5160   13.6508 O.2     1  UNL1       -0.2744
      9 N          64.5706   92.5798   11.5456 N.am    1  UNL1       -0.2836
     10 H          64.4780   93.3379   10.9244 H       1  UNL1        0.1549
     11 C          66.3257   93.9176   12.9167 C.3     1  UNL1        0.1315
     12 N          67.8814   95.8790    8.2677 N.pl3   1  UNL1       -0.3375
     13 C          67.2810   95.7608    9.6372 C.ar    1  UNL1        0.1564
     14 N          67.2659   94.5268   10.4899 N.ar    1  UNL1       -0.2283
     15 C          66.5659   94.8593   11.7741 C.ar    1  UNL1        0.0766
     16 C          66.1483   96.2988   11.7152 C.ar    1  UNL1        0.0533
     17 S          66.5902   96.8560   10.3946 S.2     1  UNL1       -0.0518
     18 H          68.3157   95.0995    7.8517 H       1  UNL1        0.1442
     19 H          67.8410   96.7359    7.7848 H       1  UNL1        0.1442
     20 C          61.3425   87.5940   10.6960 C.3     1  UNL1        0.0420
     21 C          62.0197   86.3260   10.2675 C.3     1  UNL1        0.0585
     22 C          62.3761   85.9490    8.8601 C.3     1  UNL1        0.0175
     23 C          63.0360   84.6024    8.8939 C.3     1  UNL1        0.0199
     24 C          63.0875   84.1471   10.3222 C.3     1  UNL1        0.0855
     25 N          62.4594   85.2124   11.1711 N.3     1  UNL1       -0.2971
     26 H          63.1390   85.5624   11.8464 H       1  UNL1        0.1233
     27 C          63.6656   82.8537   10.8151 C.3     1  UNL1        0.1470
     28 O          64.8594   82.2567   10.1306 O.3     1  UNL1       -0.3787
     29 H          65.1035   81.4276   10.5710 H       1  UNL1        0.2108
     30 C          63.0500   82.1573   11.9923 C.ar    1  UNL1        0.0055
     31 C          62.8236   80.6750   11.9526 C.ar    1  UNL1       -0.0019
     32 C          62.2080   79.9786   13.1299 C.ar    1  UNL1       -0.0002
     33 C          61.8187   80.7644   14.3468 C.ar    1  UNL1       -0.0000
     34 C          62.0451   82.2467   14.3865 C.ar    1  UNL1       -0.0002
     35 C          62.6607   82.9432   13.2092 C.ar    1  UNL1       -0.0019
@<TRIPOS>BOND
     1    12    13    1
     2    13    14   ar
     3    14    15   ar
     4    15    11    1
     5    11     7    1
     6     7     8    2
     7     7     9   am
     8     9     1    1
     9     1     2   ar
    10     2     3   ar
    11     3     4   ar
    12     4    20    1
    13    21    20    1
    14    21    22    1
    15    22    23    1
    16    24    23    1
    17    24    27    1
    18    27    28    1
    19    27    30    1
    20    30    31   ar
    21    31    32   ar
    22    32    33   ar
    23    33    34   ar
    24    34    35   ar
    25    24    25    1
    26     4     5   ar
    27     5     6   ar
    28    15    16   ar
    29    16    17   ar
    30    17    13   ar
    31     6     1   ar
    32    25    21    1
    33    35    30   ar
    34    12    18    1
    35    12    19    1
    36     9    10    1
    37    28    29    1
    38    25    26    1
@<TRIPOS>MOLECULE
*****
 35 38 0 0 0
SMALL
GASTEIGER

@<TRIPOS>ATOM
      1 C          63.9665   90.5479   12.6580 C.ar    1  UNL1        0.0503
      2 C          63.3863   91.0564   11.3716 C.ar    1  UNL1        0.0143
      3 C          62.5963   90.1357   10.4895 C.ar    1  UNL1       -0.0029
      4 C          62.3865   88.7065   10.8938 C.ar    1  UNL1       -0.0208
      5 C          62.9667   88.1980   12.1801 C.ar    1  UNL1       -0.0029
      6 C          63.7567   89.1187   13.0622 C.ar    1  UNL1        0.0143
      7 C          64.5476   91.4468   15.0253 C.2     1  UNL1        0.2322
      8 O          63.5486   90.5043   15.6284 O.2     1  UNL1       -0.2744
      9 N          64.7566   91.4686   13.5402 N.am    1  UNL1       -0.2836
     10 H          65.4122   92.0872   13.1444 H       1  UNL1        0.1549
     11 C          65.3377   92.3675   15.9075 C.3     1  UNL1        0.1315
     12 N          70.1336   92.1489   13.7096 N.pl3   1  UNL1       -0.3375
     13 C          68.9934   92.5167   14.6122 C.ar    1  UNL1        0.1564
     14 N          67.5953   91.9797   14.5301 N.ar    1  UNL1       -0.2283
     15 C          66.7890   92.6172   15.6225 C.ar    1  UNL1        0.0766
     16 C          67.6888   93.5483   16.3797 C.ar    1  UNL1        0.0533
     17 S          69.0512   93.4862   15.7554 S.2     1  UNL1       -0.0518
     18 H          69.9964   91.4990   12.9829 H       1  UNL1        0.1442
     19 H          71.0193   92.5574   13.8438 H       1  UNL1        0.1442
     20 C          61.5964   87.7858   10.0116 C.3     1  UNL1        0.0420
     21 C          62.1257   86.4203    9.6874 C.3     1  UNL1        0.0585
     22 C          62.2189   85.8127    8.3191 C.3     1  UNL1        0.0175
     23 C          62.8055   84.4395    8.4607 C.3     1  UNL1        0.0199
     24 C          63.0750   84.1983    9.9165 C.3     1  UNL1        0.0855
     25 N          62.6549   85.4225   10.6746 N.3     1  UNL1       -0.2971
     26 H          63.4560   85.8157   11.1685 H       1  UNL1        0.1233
     27 C          63.6616   82.9518   10.5099 C.3     1  UNL1        0.1470
     28 O          64.8254   82.2798    9.8435 O.3     1  UNL1       -0.3787
     29 H          65.0796   81.4939   10.3522 H       1  UNL1        0.2108
     30 C          63.0845   82.3774   11.7695 C.ar    1  UNL1        0.0055
     31 C          62.7600   80.9149   11.8470 C.ar    1  UNL1       -0.0019
     32 C          62.1829   80.3404   13.1066 C.ar    1  UNL1       -0.0002
     33 C          61.9303   81.2283   14.2889 C.ar    1  UNL1       -0.0000
     34 C          62.2548   82.6908   14.2115 C.ar    1  UNL1       -0.0002
     35 C          62.8319   83.2653   12.9518 C.ar    1  UNL1       -0.0019
@<TRIPOS>BOND
     1    12    13    1
     2    13    14   ar
     3    14    15   ar
     4    15    11    1
     5    11     7    1
     6     7     8    2
     7     7     9   am
     8     9     1    1
     9     1     2   ar
    10     2     3   ar
    11     3     4   ar
    12     4    20    1
    13    21    20    1
    14    21    22    1
    15    22    23    1
    16    24    23    1
    17    24    27    1
    18    27    28    1
    19    27    30    1
    20    30    31   ar
    21    31    32   ar
    22    32    33   ar
    23    33    34   ar
    24    34    35   ar
    25    24    25    1
    26     4     5   ar
    27     5     6   ar
    28    15    16   ar
    29    16    17   ar
    30    17    13   ar
    31     6     1   ar
    32    25    21    1
    33    35    30   ar
    34    12    18    1
    35    12    19    1
    36     9    10    1
    37    28    29    1
    38    25    26    1
@<TRIPOS>MOLECULE
*****
 35 38 0 0 0
SMALL
GASTEIGER

@<TRIPOS>ATOM
      1 C          64.7478   90.9310   15.0235 C.ar    1  UNL1        0.0503
      2 C          64.9474   89.6198   14.3230 C.ar    1  UNL1        0.0143
      3 C          64.2912   88.3792   14.8525 C.ar    1  UNL1       -0.0029
      4 C          63.4355   88.4499   16.0825 C.ar    1  UNL1       -0.0208
      5 C          63.2360   89.7611   16.7830 C.ar    1  UNL1       -0.0029
      6 C          63.8922   91.0017   16.2535 C.ar    1  UNL1        0.0143
      7 C          65.3164   92.5015   13.0334 C.2     1  UNL1        0.2322
      8 O          64.5726   91.5907   12.1022 O.2     1  UNL1       -0.2744
      9 N          65.4040   92.1717   14.4940 N.am    1  UNL1       -0.2836
     10 H          65.8922   92.7695   15.1052 H       1  UNL1        0.1549
     11 C          65.9725   93.7422   12.5039 C.3     1  UNL1        0.1315
     12 N          69.0108   92.1223    8.5008 N.pl3   1  UNL1       -0.3375
     13 C          68.1066   92.9572    9.3584 C.ar    1  UNL1        0.1564
     14 N          67.5668   92.5739   10.7044 N.ar    1  UNL1       -0.2283
     15 C          66.7101   93.7017   11.1985 C.ar    1  UNL1        0.0766
     16 C          66.7205   94.7820   10.1578 C.ar    1  UNL1        0.0533
     17 S          67.5836   94.3219    9.0206 S.2     1  UNL1       -0.0518
     18 H          69.3016   91.2343    8.8108 H       1  UNL1        0.1442
     19 H          69.3134   92.4624    7.6279 H       1  UNL1        0.1442
     20 C          62.7794   87.2092   16.6119 C.3     1  UNL1        0.0420
     21 C          63.1628   85.8662   16.0650 C.3     1  UNL1        0.0585
     22 C          64.5174   85.2292   16.1610 C.3     1  UNL1        0.0175
     23 C          64.4509   83.8937   15.4814 C.3     1  UNL1        0.0199
     24 C          63.0551   83.7052   14.9653 C.3     1  UNL1        0.0855
     25 N          62.2590   84.9243   15.3260 N.3     1  UNL1       -0.2971
     26 H          61.4730   84.6611   15.9203 H       1  UNL1        0.1233
     27 C          62.5449   82.5079   14.2195 C.3     1  UNL1        0.1470
     28 O          61.6126   81.5455   14.8938 O.3     1  UNL1       -0.3787
     29 H          61.3807   80.8340   14.2767 H       1  UNL1        0.2108
     30 C          62.9670   82.2730   12.7995 C.ar    1  UNL1        0.0055
     31 C          63.6862   83.3502   12.0429 C.ar    1  UNL1       -0.0019
     32 C          64.1083   83.1154   10.6228 C.ar    1  UNL1       -0.0002
     33 C          63.8113   81.8033    9.9593 C.ar    1  UNL1       -0.0000
     34 C          63.0920   80.7261   10.7159 C.ar    1  UNL1       -0.0002
     35 C          62.6699   80.9610   12.1360 C.ar    1  UNL1       -0.0019
@<TRIPOS>BOND
     1    12    13    1
     2    13    14   ar
     3    14    15   ar
     4    15    11    1
     5    11     7    1
     6     7     8    2
     7     7     9   am
     8     9     1    1
     9     1     2   ar
    10     2     3   ar
    11     3     4   ar
    12     4    20    1
    13    21    20    1
    14    21    22    1
    15    22    23    1
    16    24    23    1
    17    24    27    1
    18    27    28    1
    19    27    30    1
    20    30    31   ar
    21    31    32   ar
    22    32    33   ar
    23    33    34   ar
    24    34    35   ar
    25    24    25    1
    26     4     5   ar
    27     5     6   ar
    28    15    16   ar
    29    16    17   ar
    30    17    13   ar
    31     6     1   ar
    32    25    21    1
    33    35    30   ar
    34    12    18    1
    35    12    19    1
    36     9    10    1
    37    28    29    1
    38    25    26    1
@<TRIPOS>MOLECULE
*****
 35 38 0 0 0
SMALL
GASTEIGER

@<TRIPOS>ATOM
      1 C          61.3101   90.2448   10.0095 C.ar    1  UNL1        0.0503
      2 C          60.8015   89.7971   11.3477 C.ar    1  UNL1        0.0143
      3 C          61.6681   89.9357   12.5641 C.ar    1  UNL1       -0.0029
      4 C          63.0433   90.5222   12.4423 C.ar    1  UNL1       -0.0208
      5 C          63.5519   90.9699   11.1042 C.ar    1  UNL1       -0.0029
      6 C          62.6853   90.8312    9.8878 C.ar    1  UNL1        0.0143
      7 C          60.1637   88.7474    8.2224 C.2     1  UNL1        0.2322
      8 O          60.7504   87.5274    8.8683 O.2     1  UNL1       -0.2744
      9 N          60.4435   90.1061    8.7930 N.am    1  UNL1       -0.2836
     10 H          60.0583   90.9069    8.3691 H       1  UNL1        0.1549
     11 C          59.2970   88.6088    7.0059 C.3     1  UNL1        0.1315
     12 N          59.8529   92.8409    3.8978 N.pl3   1  UNL1       -0.3375
     13 C          59.2430   91.7566    4.7359 C.ar    1  UNL1        0.1564
     14 N          59.9897   90.6714    5.4533 N.ar    1  UNL1       -0.2283
     15 C          58.9875   89.8113    6.1645 C.ar    1  UNL1        0.0766
     16 C          57.6214   90.3650    5.8866 C.ar    1  UNL1        0.0533
     17 S          57.7792   91.5673    5.0037 S.2     1  UNL1       -0.0518
     18 H          60.8296   92.8820    3.7807 H       1  UNL1        0.1442
     19 H          59.2766   93.5114    3.4648 H       1  UNL1        0.1442
     20 C          63.9099   90.6609   13.6589 C.3     1  UNL1        0.0420
     21 C          63.6530   89.8058   14.8642 C.3     1  UNL1        0.0585
     22 C          63.4057   90.2995   16.2588 C.3     1  UNL1        0.0175
     23 C          63.1981   89.1058   17.1431 C.3     1  UNL1        0.0199
     24 C          63.3171   87.8743   16.2949 C.3     1  UNL1        0.0855
     25 N          63.5982   88.3070   14.8865 N.3     1  UNL1       -0.2971
     26 H          62.8559   87.9785   14.2688 H       1  UNL1        0.1233
     27 C          63.1791   86.4587   16.7715 C.3     1  UNL1        0.1470
     28 O          62.7995   86.1805   18.1958 O.3     1  UNL1       -0.3787
     29 H          62.7542   85.2219   18.3370 H       1  UNL1        0.2108
     30 C          63.4207   85.3214   15.8239 C.ar    1  UNL1        0.0055
     31 C          62.3883   84.2448   15.6657 C.ar    1  UNL1       -0.0019
     32 C          62.6298   83.1074   14.7181 C.ar    1  UNL1       -0.0002
     33 C          63.9038   83.0466   13.9287 C.ar    1  UNL1       -0.0000
     34 C          64.9363   84.1232   14.0869 C.ar    1  UNL1       -0.0002
     35 C          64.6947   85.2606   15.0345 C.ar    1  UNL1       -0.0019
@<TRIPOS>BOND
     1    12    13    1
     2    13    14   ar
     3    14    15   ar
     4    15    11    1
     5    11     7    1
     6     7     8    2
     7     7     9   am
     8     9     1    1
     9     1     2   ar
    10     2     3   ar
    11     3     4   ar
    12     4    20    1
    13    21    20    1
    14    21    22    1
    15    22    23    1
    16    24    23    1
    17    24    27    1
    18    27    28    1
    19    27    30    1
    20    30    31   ar
    21    31    32   ar
    22    32    33   ar
    23    33    34   ar
    24    34    35   ar
    25    24    25    1
    26     4     5   ar
    27     5     6   ar
    28    15    16   ar
    29    16    17   ar
    30    17    13   ar
    31     6     1   ar
    32    25    21    1
    33    35    30   ar
    34    12    18    1
    35    12    19    1
    36     9    10    1
    37    28    29    1
    38    25    26    1
@<TRIPOS>MOLECULE
*****
 35 38 0 0 0
SMALL
GASTEIGER

@<TRIPOS>ATOM
      1 C          61.1369   89.5223    9.9384 C.ar    1  UNL1        0.0503
      2 C          61.7985   90.6536   10.6679 C.ar    1  UNL1        0.0143
      3 C          62.7551   90.3668   11.7871 C.ar    1  UNL1       -0.0029
      4 C          63.0500   88.9486   12.1768 C.ar    1  UNL1       -0.0208
      5 C          62.3884   87.8173   11.4472 C.ar    1  UNL1       -0.0029
      6 C          61.4318   88.1042   10.3280 C.ar    1  UNL1        0.0143
      7 C          59.8119   88.7243    7.8509 C.2     1  UNL1        0.2322
      8 O          60.4000   87.3527    8.0019 O.2     1  UNL1       -0.2744
      9 N          60.1803   89.8091    8.8191 N.am    1  UNL1       -0.2836
     10 H          59.7943   90.7093    8.7200 H       1  UNL1        0.1549
     11 C          58.8552   89.0112    6.7316 C.3     1  UNL1        0.1315
     12 N          61.2688   92.4130    3.4939 N.pl3   1  UNL1       -0.3375
     13 C          60.2189   91.7259    4.3159 C.ar    1  UNL1        0.1564
     14 N          60.4209   90.5028    5.1604 N.ar    1  UNL1       -0.2283
     15 C          59.1095   90.1622    5.8041 C.ar    1  UNL1        0.0766
     16 C          58.0971   91.1749    5.3574 C.ar    1  UNL1        0.0533
     17 S          58.7827   92.1413    4.4377 S.2     1  UNL1       -0.0518
     18 H          62.1888   92.0628    3.4781 H       1  UNL1        0.1442
     19 H          61.0379   93.2141    2.9703 H       1  UNL1        0.1442
     20 C          64.0066   88.6618   13.2961 C.3     1  UNL1        0.0420
     21 C          63.9258   87.3600   14.0367 C.3     1  UNL1        0.0585
     22 C          64.2291   87.1527   15.4910 C.3     1  UNL1        0.0175
     23 C          64.0182   85.7014   15.8062 C.3     1  UNL1        0.0199
     24 C          63.5845   85.0118   14.5467 C.3     1  UNL1        0.0855
     25 N          63.5274   86.0368   13.4531 N.3     1  UNL1       -0.2971
     26 H          62.5793   86.0939   13.0813 H       1  UNL1        0.1233
     27 C          63.2642   83.5532   14.4056 C.3     1  UNL1        0.1470
     28 O          62.8314   82.7610   15.6036 O.3     1  UNL1       -0.3787
     29 H          62.6650   81.8423   15.3408 H       1  UNL1        0.2108
     30 C          63.3766   82.8867   13.0666 C.ar    1  UNL1        0.0055
     31 C          62.6378   81.6087   12.8006 C.ar    1  UNL1       -0.0019
     32 C          62.7502   80.9421   11.4615 C.ar    1  UNL1       -0.0002
     33 C          63.6014   81.5536   10.3885 C.ar    1  UNL1       -0.0000
     34 C          64.3403   82.8317   10.6545 C.ar    1  UNL1       -0.0002
     35 C          64.2279   83.4982   11.9936 C.ar    1  UNL1       -0.0019
@<TRIPOS>BOND
     1    12    13    1
     2    13    14   ar
     3    14    15   ar
     4    15    11    1
     5    11     7    1
     6     7     8    2
     7     7     9   am
     8     9     1    1
     9     1     2   ar
    10     2     3   ar
    11     3     4   ar
    12     4    20    1
    13    21    20    1
    14    21    22    1
    15    22    23    1
    16    24    23    1
    17    24    27    1
    18    27    28    1
    19    27    30    1
    20    30    31   ar
    21    31    32   ar
    22    32    33   ar
    23    33    34   ar
    24    34    35   ar
    25    24    25    1
    26     4     5   ar
    27     5     6   ar
    28    15    16   ar
    29    16    17   ar
    30    17    13   ar
    31     6     1   ar
    32    25    21    1
    33    35    30   ar
    34    12    18    1
    35    12    19    1
    36     9    10    1
    37    28    29    1
    38    25    26    1
@<TRIPOS>MOLECULE
*****
 35 38 0 0 0
SMALL
GASTEIGER

@<TRIPOS>ATOM
      1 C          59.6714   92.4598    4.1121 C.ar    1  UNL1        0.0503
      2 C          58.2864   92.0905    4.5541 C.ar    1  UNL1        0.0143
      3 C          58.0748   90.8998    5.4413 C.ar    1  UNL1       -0.0029
      4 C          59.2481   90.0782    5.8866 C.ar    1  UNL1       -0.0208
      5 C          60.6331   90.4475    5.4446 C.ar    1  UNL1       -0.0029
      6 C          60.8448   91.6383    4.5574 C.ar    1  UNL1        0.0143
      7 C          60.0049   93.4681    1.7410 C.2     1  UNL1        0.2322
      8 O          59.9150   92.0948    1.1444 O.2     1  UNL1       -0.2744
      9 N          59.8831   93.6506    3.2248 N.am    1  UNL1       -0.2836
     10 H          59.9420   94.5520    3.6164 H       1  UNL1        0.1549
     11 C          60.2165   94.6590    0.8537 C.3     1  UNL1        0.1315
     12 N          65.4022   94.6471   -0.1409 N.pl3   1  UNL1       -0.3375
     13 C          63.9237   94.8603   -0.2781 C.ar    1  UNL1        0.1564
     14 N          62.8791   94.4637    0.7226 N.ar    1  UNL1       -0.2283
     15 C          61.5402   94.8657    0.1790 C.ar    1  UNL1        0.0766
     16 C          61.7572   95.5108   -1.1577 C.ar    1  UNL1        0.0533
     17 S          63.2303   95.5075   -1.4403 S.2     1  UNL1       -0.0518
     18 H          65.7640   94.2105    0.6639 H       1  UNL1        0.1442
     19 H          66.0107   94.9439   -0.8557 H       1  UNL1        0.1442
     20 C          59.0365   88.8874    6.7739 C.3     1  UNL1        0.0420
     21 C          59.8404   88.7365    8.0312 C.3     1  UNL1        0.0585
     22 C          60.6574   87.5392    8.4169 C.3     1  UNL1        0.0175
     23 C          61.2905   87.8192    9.7476 C.3     1  UNL1        0.0199
     24 C          60.8647   89.1896   10.1843 C.3     1  UNL1        0.0855
     25 N          59.9685   89.7566    9.1235 N.3     1  UNL1       -0.2971
     26 H          60.3742   90.6147    8.7500 H       1  UNL1        0.1233
     27 C          61.2649   89.8731   11.4582 C.3     1  UNL1        0.1470
     28 O          60.3685   89.8059   12.6590 O.3     1  UNL1       -0.3787
     29 H          60.7725   90.2962   13.3920 H       1  UNL1        0.2108
     30 C          62.5615   90.6237   11.5313 C.ar    1  UNL1        0.0055
     31 C          63.1203   91.2768   10.3020 C.ar    1  UNL1       -0.0019
     32 C          64.4169   92.0274   10.3750 C.ar    1  UNL1       -0.0002
     33 C          65.1546   92.1250   11.6774 C.ar    1  UNL1       -0.0000
     34 C          64.5958   91.4720   12.9067 C.ar    1  UNL1       -0.0002
     35 C          63.2992   90.7213   12.8337 C.ar    1  UNL1       -0.0019
@<TRIPOS>BOND
     1    12    13    1
     2    13    14   ar
     3    14    15   ar
     4    15    11    1
     5    11     7    1
     6     7     8    2
     7     7     9   am
     8     9     1    1
     9     1     2   ar
    10     2     3   ar
    11     3     4   ar
    12     4    20    1
    13    21    20    1
    14    21    22    1
    15    22    23    1
    16    24    23    1
    17    24    27    1
    18    27    28    1
    19    27    30    1
    20    30    31   ar
    21    31    32   ar
    22    32    33   ar
    23    33    34   ar
    24    34    35   ar
    25    24    25    1
    26     4     5   ar
    27     5     6   ar
    28    15    16   ar
    29    16    17   ar
    30    17    13   ar
    31     6     1   ar
    32    25    21    1
    33    35    30   ar
    34    12    18    1
    35    12    19    1
    36     9    10    1
    37    28    29    1
    38    25    26    1
@<TRIPOS>MOLECULE
*****
 35 38 0 0 0
SMALL
GASTEIGER

@<TRIPOS>ATOM
      1 C          59.6571   92.4811    4.1183 C.ar    1  UNL1        0.0503
      2 C          60.8370   91.6509    4.5289 C.ar    1  UNL1        0.0143
      3 C          60.6412   90.4549    5.4127 C.ar    1  UNL1       -0.0029
      4 C          59.2657   90.0890    5.8859 C.ar    1  UNL1       -0.0208
      5 C          58.0858   90.9193    5.4753 C.ar    1  UNL1       -0.0029
      6 C          58.2815   92.1153    4.5915 C.ar    1  UNL1        0.0143
      7 C          59.9383   93.5046    1.7469 C.2     1  UNL1        0.2322
      8 O          59.8281   92.1360    1.1431 O.2     1  UNL1       -0.2744
      9 N          59.8528   93.6772    3.2345 N.am    1  UNL1       -0.2836
     10 H          59.9251   94.5756    3.6308 H       1  UNL1        0.1549
     11 C          60.1340   94.7008    0.8631 C.3     1  UNL1        0.1315
     12 N          59.0693   95.4581   -4.2529 N.pl3   1  UNL1       -0.3375
     13 C          58.9130   95.1441   -2.7944 C.ar    1  UNL1        0.1564
     14 N          60.0021   95.1781   -1.7636 N.ar    1  UNL1       -0.2283
     15 C          59.4024   94.7960   -0.4429 C.ar    1  UNL1        0.0766
     16 C          57.9426   94.5259   -0.6575 C.ar    1  UNL1        0.0533
     17 S          57.6401   94.7411   -2.1108 S.2     1  UNL1       -0.0518
     18 H          59.9504   95.7147   -4.6095 H       1  UNL1        0.1442
     19 H          58.2909   95.4076   -4.8535 H       1  UNL1        0.1442
     20 C          59.0700   88.8929    6.7697 C.3     1  UNL1        0.0420
     21 C          59.8781   88.7477    8.0250 C.3     1  UNL1        0.0585
     22 C          60.7082   87.5579    8.4064 C.3     1  UNL1        0.0175
     23 C          61.3412   87.8416    9.7363 C.3     1  UNL1        0.0199
     24 C          60.9024   89.2067   10.1769 C.3     1  UNL1        0.0855
     25 N          59.9982   89.7666    9.1192 N.3     1  UNL1       -0.2971
     26 H          60.3942   90.6296    8.7466 H       1  UNL1        0.1233
     27 C          61.2983   89.8915   11.4514 C.3     1  UNL1        0.1470
     28 O          60.3994   89.8229   12.6502 O.3     1  UNL1       -0.3787
     29 H          60.8008   90.3144   13.3839 H       1  UNL1        0.2108
     30 C          62.5931   90.6449   11.5270 C.ar    1  UNL1        0.0055
     31 C          63.3351   90.7322   12.8278 C.ar    1  UNL1       -0.0019
     32 C          64.6299   91.4856   12.9035 C.ar    1  UNL1       -0.0002
     33 C          65.1828   92.1517   11.6785 C.ar    1  UNL1       -0.0000
     34 C          64.4408   92.0644   10.3778 C.ar    1  UNL1       -0.0002
     35 C          63.1460   91.3110   10.3020 C.ar    1  UNL1       -0.0019
@<TRIPOS>BOND
     1    12    13    1
     2    13    14   ar
     3    14    15   ar
     4    15    11    1
     5    11     7    1
     6     7     8    2
     7     7     9   am
     8     9     1    1
     9     1     2   ar
    10     2     3   ar
    11     3     4   ar
    12     4    20    1
    13    21    20    1
    14    21    22    1
    15    22    23    1
    16    24    23    1
    17    24    27    1
    18    27    28    1
    19    27    30    1
    20    30    31   ar
    21    31    32   ar
    22    32    33   ar
    23    33    34   ar
    24    34    35   ar
    25    24    25    1
    26     4     5   ar
    27     5     6   ar
    28    15    16   ar
    29    16    17   ar
    30    17    13   ar
    31     6     1   ar
    32    25    21    1
    33    35    30   ar
    34    12    18    1
    35    12    19    1
    36     9    10    1
    37    28    29    1
    38    25    26    1
@<TRIPOS>MOLECULE
*****
 35 38 0 0 0
SMALL
GASTEIGER

@<TRIPOS>ATOM
      1 C          61.4299   88.9318   10.9882 C.ar    1  UNL1        0.0503
      2 C          60.5506   90.0246   10.4566 C.ar    1  UNL1        0.0143
      3 C          59.8851   89.8689    9.1214 C.ar    1  UNL1       -0.0029
      4 C          60.0990   88.6205    8.3178 C.ar    1  UNL1       -0.0208
      5 C          60.9783   87.5277    8.8494 C.ar    1  UNL1       -0.0029
      6 C          61.6438   87.6834   10.1846 C.ar    1  UNL1        0.0143
      7 C          63.1876   90.0997   12.5037 C.2     1  UNL1        0.2322
      8 O          63.6142   90.9564   11.3487 O.2     1  UNL1       -0.2744
      9 N          62.0955   89.0874   12.3235 N.am    1  UNL1       -0.2836
     10 H          61.8155   88.5251   13.0816 H       1  UNL1        0.1549
     11 C          63.8531   90.2553   13.8390 C.3     1  UNL1        0.1315
     12 N          63.9578   85.5934   16.3161 N.pl3   1  UNL1       -0.3375
     13 C          63.7427   87.0487   16.0232 C.ar    1  UNL1        0.1564
     14 N          64.0741   87.7478   14.7381 N.ar    1  UNL1       -0.2283
     15 C          63.6945   89.1916   14.8846 C.ar    1  UNL1        0.0766
     16 C          63.1285   89.3848   16.2602 C.ar    1  UNL1        0.0533
     17 S          63.1583   88.0605   16.9639 S.2     1  UNL1       -0.0518
     18 H          64.3501   85.0060   15.6303 H       1  UNL1        0.1442
     19 H          63.7067   85.2257   17.1941 H       1  UNL1        0.1442
     20 C          59.4334   88.4649    6.9825 C.3     1  UNL1        0.0420
     21 C          58.9962   89.6781    6.2165 C.3     1  UNL1        0.0585
     22 C          57.5785   90.0812    5.9377 C.3     1  UNL1        0.0175
     23 C          57.6060   91.3535    5.1437 C.3     1  UNL1        0.0199
     24 C          59.0406   91.7368    4.9318 C.3     1  UNL1        0.0855
     25 N          59.8998   90.7014    5.5948 N.3     1  UNL1       -0.2971
     26 H          60.4750   91.1384    6.3150 H       1  UNL1        0.1233
     27 C          59.5301   92.9437    4.1875 C.3     1  UNL1        0.1470
     28 O          59.3197   94.3141    4.7599 O.3     1  UNL1       -0.3787
     29 H          59.6931   94.9768    4.1578 H       1  UNL1        0.2108
     30 C          60.2300   92.7801    2.8710 C.ar    1  UNL1        0.0055
     31 C          59.4607   92.9175    1.5906 C.ar    1  UNL1       -0.0019
     32 C          60.1605   92.7540    0.2740 C.ar    1  UNL1       -0.0002
     33 C          61.6295   92.4530    0.2377 C.ar    1  UNL1       -0.0000
     34 C          62.3988   92.3156    1.5182 C.ar    1  UNL1       -0.0002
     35 C          61.6990   92.4791    2.8348 C.ar    1  UNL1       -0.0019
@<TRIPOS>BOND
     1    12    13    1
     2    13    14   ar
     3    14    15   ar
     4    15    11    1
     5    11     7    1
     6     7     8    2
     7     7     9   am
     8     9     1    1
     9     1     2   ar
    10     2     3   ar
    11     3     4   ar
    12     4    20    1
    13    21    20    1
    14    21    22    1
    15    22    23    1
    16    24    23    1
    17    24    27    1
    18    27    28    1
    19    27    30    1
    20    30    31   ar
    21    31    32   ar
    22    32    33   ar
    23    33    34   ar
    24    34    35   ar
    25    24    25    1
    26     4     5   ar
    27     5     6   ar
    28    15    16   ar
    29    16    17   ar
    30    17    13   ar
    31     6     1   ar
    32    25    21    1
    33    35    30   ar
    34    12    18    1
    35    12    19    1
    36     9    10    1
    37    28    29    1
    38    25    26    1
