@<TRIPOS>MOLECULE
*****
 22 24 0 0 0
SMALL
GASTEIGER

@<TRIPOS>ATOM
      1 C          65.7278   92.7031   11.9291 C.2     1  UNL1        0.1223
      2 C          65.5069   91.9970   13.2340 C.2     1  UNL1        0.0343
      3 C          64.3861   91.0097   13.3721 C.2     1  UNL1        0.0232
      4 C          63.4863   90.7284   12.2055 C.2     1  UNL1        0.0975
      5 N          62.3085   89.8136   12.0440 N.2     1  UNL1       -0.2200
      6 C          61.8015   89.9544   10.6393 C.2     1  UNL1        0.1901
      7 N          62.6659   90.9561    9.9326 N.2     1  UNL1       -0.2236
      8 C          63.7072   91.4345   10.9007 C.2     1  UNL1        0.0863
      9 C          64.8279   92.4218   10.7625 C.3     1  UNL1        0.1112
     10 C          66.7134   94.8517   10.8512 C.3     1  UNL1        0.2520
     11 O          66.8485   93.6904   11.7909 O.2     1  UNL1       -0.4753
     12 S          60.6349   89.2219   10.0455 S.3     1  UNL1       -0.0709
     13 C          60.8677   88.0437    9.1467 C.3     1  UNL1        0.0913
     14 C          61.5873   86.8346    9.6664 C.ar    1  UNL1       -0.0109
     15 C          61.4332   86.4298   11.1025 C.ar    1  UNL1       -0.0037
     16 C          62.1528   85.2206   11.6222 C.ar    1  UNL1       -0.0046
     17 C          63.0265   84.4162   10.7058 C.ar    1  UNL1       -0.0225
     18 C          63.1805   84.8211    9.2697 C.ar    1  UNL1       -0.0046
     19 C          62.4609   86.0303    8.7500 C.ar    1  UNL1       -0.0037
     20 C          63.7461   83.2071   11.2255 C.3     1  UNL1        0.0224
     21 C          63.8830   81.9875   10.3631 C.3     1  UNL1        0.0047
     22 C          64.3287   83.2176   12.6077 C.3     1  UNL1        0.0047
@<TRIPOS>BOND
     1    10    11    1
     2    11     1    1
     3     1     2    2
     4     2     3    1
     5     3     4    2
     6     4     5    1
     7     5     6    2
     8     6    12    1
     9    12    13    1
    10    13    14    1
    11    14    15   ar
    12    15    16   ar
    13    16    17   ar
    14    17    20    1
    15    20    21    1
    16    20    22    1
    17    17    18   ar
    18    18    19   ar
    19     6     7    1
    20     7     8    2
    21     8     9    1
    22     9     1    1
    23     8     4    1
    24    19    14   ar
@<TRIPOS>MOLECULE
*****
 22 24 0 0 0
SMALL
GASTEIGER

@<TRIPOS>ATOM
      1 C          65.4270   91.8962   13.3634 C.2     1  UNL1        0.1223
      2 C          65.7877   92.5268   12.0511 C.2     1  UNL1        0.0343
      3 C          64.9489   92.2621   10.8360 C.2     1  UNL1        0.0232
      4 C          63.7493   91.3668   10.9333 C.2     1  UNL1        0.0975
      5 N          62.7416   90.9246    9.9141 N.2     1  UNL1       -0.2200
      6 C          61.7580   90.0208   10.5965 C.2     1  UNL1        0.1901
      7 N          62.1578   89.9043   12.0375 N.2     1  UNL1       -0.2236
      8 C          63.3886   90.7362   12.2456 C.2     1  UNL1        0.0863
      9 C          64.2274   91.0009   13.4607 C.3     1  UNL1        0.1112
     10 C          67.0285   93.4471   14.6976 C.3     1  UNL1        0.2520
     11 O          66.2658   92.1610   14.5784 O.2     1  UNL1       -0.4753
     12 S          60.5811   89.3510    9.9511 S.3     1  UNL1       -0.0709
     13 C          60.7865   88.1402    9.0899 C.3     1  UNL1        0.0913
     14 C          61.5143   86.9471    9.6346 C.ar    1  UNL1       -0.0109
     15 C          62.3923   86.1289    8.7347 C.ar    1  UNL1       -0.0037
     16 C          63.1201   84.9358    9.2794 C.ar    1  UNL1       -0.0046
     17 C          62.9700   84.5609   10.7241 C.ar    1  UNL1       -0.0225
     18 C          62.0921   85.3791   11.6240 C.ar    1  UNL1       -0.0046
     19 C          61.3642   86.5722   11.0792 C.ar    1  UNL1       -0.0037
     20 C          63.6978   83.3678   11.2688 C.3     1  UNL1        0.0224
     21 C          64.1943   83.3740   12.6843 C.3     1  UNL1        0.0047
     22 C          63.9292   82.1685   10.3981 C.3     1  UNL1        0.0047
@<TRIPOS>BOND
     1    10    11    1
     2    11     1    1
     3     1     2    2
     4     2     3    1
     5     3     4    2
     6     4     5    1
     7     5     6    2
     8     6    12    1
     9    12    13    1
    10    13    14    1
    11    14    15   ar
    12    15    16   ar
    13    16    17   ar
    14    17    20    1
    15    20    21    1
    16    20    22    1
    17    17    18   ar
    18    18    19   ar
    19     6     7    1
    20     7     8    2
    21     8     9    1
    22     9     1    1
    23     8     4    1
    24    19    14   ar
@<TRIPOS>MOLECULE
*****
 22 24 0 0 0
SMALL
GASTEIGER

@<TRIPOS>ATOM
      1 C          63.8119   82.9889   11.6260 C.2     1  UNL1        0.1223
      2 C          64.0789   83.0663   10.1520 C.2     1  UNL1        0.0343
      3 C          63.5007   84.1893    9.3430 C.2     1  UNL1        0.0232
      4 C          62.6555   85.2350   10.0079 C.2     1  UNL1        0.0975
      5 N          61.9565   86.4497    9.4733 N.2     1  UNL1       -0.2200
      6 C          61.2574   87.1231   10.6170 C.2     1  UNL1        0.1901
      7 N          61.5244   86.3246   11.8583 N.2     1  UNL1       -0.2236
      8 C          62.3885   85.1576   11.4819 C.2     1  UNL1        0.0863
      9 C          62.9667   84.0346   12.2909 C.3     1  UNL1        0.1112
     10 C          63.5221   81.1104   13.3971 C.3     1  UNL1        0.2520
     11 O          64.3901   81.8659   12.4350 O.2     1  UNL1       -0.4753
     12 S          60.4356   88.3753   10.5338 S.3     1  UNL1       -0.0709
     13 C          61.0538   89.6460   10.0308 C.3     1  UNL1        0.0913
     14 C          62.1904   90.2752   10.7806 C.ar    1  UNL1       -0.0109
     15 C          63.1195   91.2210   10.0789 C.ar    1  UNL1       -0.0037
     16 C          64.2561   91.8501   10.8287 C.ar    1  UNL1       -0.0046
     17 C          64.4637   91.5335   12.2802 C.ar    1  UNL1       -0.0225
     18 C          63.5346   90.5877   12.9818 C.ar    1  UNL1       -0.0046
     19 C          62.3979   89.9585   12.2320 C.ar    1  UNL1       -0.0037
     20 C          65.6003   92.1626   13.0300 C.3     1  UNL1        0.0224
     21 C          66.1435   93.4906   12.5926 C.3     1  UNL1        0.0047
     22 C          66.1937   91.4638   14.2172 C.3     1  UNL1        0.0047
@<TRIPOS>BOND
     1    10    11    1
     2    11     1    1
     3     1     2    2
     4     2     3    1
     5     3     4    2
     6     4     5    1
     7     5     6    2
     8     6    12    1
     9    12    13    1
    10    13    14    1
    11    14    15   ar
    12    15    16   ar
    13    16    17   ar
    14    17    20    1
    15    20    21    1
    16    20    22    1
    17    17    18   ar
    18    18    19   ar
    19     6     7    1
    20     7     8    2
    21     8     9    1
    22     9     1    1
    23     8     4    1
    24    19    14   ar
@<TRIPOS>MOLECULE
*****
 22 24 0 0 0
SMALL
GASTEIGER

@<TRIPOS>ATOM
      1 C          63.3653   82.7004   13.8035 C.2     1  UNL1        0.1223
      2 C          62.8786   83.1215   12.4486 C.2     1  UNL1        0.0343
      3 C          62.8637   84.5742   12.0752 C.2     1  UNL1        0.0232
      4 C          63.3355   85.6058   13.0566 C.2     1  UNL1        0.0975
      5 N          63.4360   87.1000   12.9718 N.2     1  UNL1       -0.2200
      6 C          63.9847   87.6023   14.2743 C.2     1  UNL1        0.1901
      7 N          64.2234   86.4186   15.1641 N.2     1  UNL1       -0.2236
      8 C          63.8221   85.1846   14.4115 C.2     1  UNL1        0.0863
      9 C          63.8370   83.7319   14.7850 C.3     1  UNL1        0.1112
     10 C          62.3773   80.3083   13.5754 C.3     1  UNL1        0.2520
     11 O          63.3801   81.2477   14.1770 O.2     1  UNL1       -0.4753
     12 S          64.2485   89.0367   14.6254 S.3     1  UNL1       -0.0709
     13 C          63.5529   90.1328   13.8740 C.3     1  UNL1        0.0913
     14 C          64.3428   91.0610   12.9995 C.ar    1  UNL1       -0.0109
     15 C          65.5557   91.7548   13.5450 C.ar    1  UNL1       -0.0037
     16 C          66.3455   92.6829   12.6706 C.ar    1  UNL1       -0.0046
     17 C          65.9225   92.9173   11.2506 C.ar    1  UNL1       -0.0225
     18 C          64.7096   92.2235   10.7052 C.ar    1  UNL1       -0.0046
     19 C          63.9197   91.2953   11.5797 C.ar    1  UNL1       -0.0037
     20 C          66.7123   93.8454   10.3762 C.3     1  UNL1        0.0224
     21 C          67.7531   93.2957    9.4464 C.3     1  UNL1        0.0047
     22 C          66.4614   95.3232   10.4316 C.3     1  UNL1        0.0047
@<TRIPOS>BOND
     1    10    11    1
     2    11     1    1
     3     1     2    2
     4     2     3    1
     5     3     4    2
     6     4     5    1
     7     5     6    2
     8     6    12    1
     9    12    13    1
    10    13    14    1
    11    14    15   ar
    12    15    16   ar
    13    16    17   ar
    14    17    20    1
    15    20    21    1
    16    20    22    1
    17    17    18   ar
    18    18    19   ar
    19     6     7    1
    20     7     8    2
    21     8     9    1
    22     9     1    1
    23     8     4    1
    24    19    14   ar
@<TRIPOS>MOLECULE
*****
 22 24 0 0 0
SMALL
GASTEIGER

@<TRIPOS>ATOM
      1 C          63.4550   82.2837   13.4111 C.2     1  UNL1        0.1223
      2 C          64.0838   83.1979   14.4204 C.2     1  UNL1        0.0343
      3 C          64.0112   84.6845   14.2337 C.2     1  UNL1        0.0232
      4 C          63.3100   85.2568   13.0376 C.2     1  UNL1        0.0975
      5 N          63.0793   86.6698   12.5902 N.2     1  UNL1       -0.2200
      6 C          62.3080   86.6289   11.3043 C.2     1  UNL1        0.1901
      7 N          62.0620   85.1906   10.9570 N.2     1  UNL1       -0.2236
      8 C          62.6812   84.3426   12.0283 C.2     1  UNL1        0.0863
      9 C          62.7537   82.8560   12.2150 C.3     1  UNL1        0.1112
     10 C          62.2997   79.9567   13.4084 C.3     1  UNL1        0.2520
     11 O          63.5275   80.7971   13.5978 O.2     1  UNL1       -0.4753
     12 S          61.8613   87.8176   10.5059 S.3     1  UNL1       -0.0709
     13 C          61.5560   89.1135   11.1971 C.3     1  UNL1        0.0913
     14 C          62.6525   90.1054   11.4494 C.ar    1  UNL1       -0.0109
     15 C          63.1451   90.9787   10.3338 C.ar    1  UNL1       -0.0037
     16 C          64.2416   91.9707   10.5861 C.ar    1  UNL1       -0.0046
     17 C          64.8455   92.0893   11.9541 C.ar    1  UNL1       -0.0225
     18 C          64.3528   91.2160   13.0697 C.ar    1  UNL1       -0.0046
     19 C          63.2563   90.2240   12.8173 C.ar    1  UNL1       -0.0037
     20 C          65.9420   93.0813   12.2064 C.3     1  UNL1        0.0224
     21 C          66.5404   93.2056   13.5762 C.3     1  UNL1        0.0047
     22 C          66.4401   93.9490   11.0888 C.3     1  UNL1        0.0047
@<TRIPOS>BOND
     1    10    11    1
     2    11     1    1
     3     1     2    2
     4     2     3    1
     5     3     4    2
     6     4     5    1
     7     5     6    2
     8     6    12    1
     9    12    13    1
    10    13    14    1
    11    14    15   ar
    12    15    16   ar
    13    16    17   ar
    14    17    20    1
    15    20    21    1
    16    20    22    1
    17    17    18   ar
    18    18    19   ar
    19     6     7    1
    20     7     8    2
    21     8     9    1
    22     9     1    1
    23     8     4    1
    24    19    14   ar
@<TRIPOS>MOLECULE
*****
 22 24 0 0 0
SMALL
GASTEIGER

@<TRIPOS>ATOM
      1 C          63.9524   89.8654   15.3080 C.2     1  UNL1        0.1223
      2 C          63.2131   89.6035   16.5865 C.2     1  UNL1        0.0343
      3 C          62.9931   88.1942   17.0505 C.2     1  UNL1        0.0232
      4 C          63.5125   87.0467   16.2359 C.2     1  UNL1        0.0975
      5 N          63.4484   85.5618   16.4385 N.2     1  UNL1       -0.2200
      6 C          64.1482   84.9060   15.2851 C.2     1  UNL1        0.1901
      7 N          64.6447   85.9856   14.3697 N.2     1  UNL1       -0.2236
      8 C          64.2518   87.3086   14.9574 C.2     1  UNL1        0.0863
      9 C          64.4717   88.7180   14.4934 C.3     1  UNL1        0.1112
     10 C          65.4812   91.9568   15.1115 C.3     1  UNL1        0.2520
     11 O          64.1724   91.2748   14.8440 O.2     1  UNL1       -0.4753
     12 S          64.3210   83.4298   15.0827 S.3     1  UNL1       -0.0709
     13 C          63.5947   82.7353   13.9691 C.3     1  UNL1        0.0913
     14 C          63.3196   83.4613   12.6856 C.ar    1  UNL1       -0.0109
     15 C          62.3324   84.5903   12.6593 C.ar    1  UNL1       -0.0037
     16 C          62.0573   85.3163   11.3758 C.ar    1  UNL1       -0.0046
     17 C          62.7694   84.9132   10.1186 C.ar    1  UNL1       -0.0225
     18 C          63.7566   83.7841   10.1450 C.ar    1  UNL1       -0.0046
     19 C          64.0317   83.0582   11.4285 C.ar    1  UNL1       -0.0037
     20 C          62.4943   85.6391    8.8352 C.3     1  UNL1        0.0224
     21 C          61.8982   87.0153    8.8648 C.3     1  UNL1        0.0047
     22 C          62.8153   84.9889    7.5221 C.3     1  UNL1        0.0047
@<TRIPOS>BOND
     1    10    11    1
     2    11     1    1
     3     1     2    2
     4     2     3    1
     5     3     4    2
     6     4     5    1
     7     5     6    2
     8     6    12    1
     9    12    13    1
    10    13    14    1
    11    14    15   ar
    12    15    16   ar
    13    16    17   ar
    14    17    20    1
    15    20    21    1
    16    20    22    1
    17    17    18   ar
    18    18    19   ar
    19     6     7    1
    20     7     8    2
    21     8     9    1
    22     9     1    1
    23     8     4    1
    24    19    14   ar
@<TRIPOS>MOLECULE
*****
 22 24 0 0 0
SMALL
GASTEIGER

@<TRIPOS>ATOM
      1 C          60.3057   87.6915    9.0414 C.2     1  UNL1        0.1223
      2 C          60.9649   86.3770    9.3369 C.2     1  UNL1        0.0343
      3 C          61.9520   86.2689   10.4611 C.2     1  UNL1        0.0232
      4 C          62.2800   87.4753   11.2898 C.2     1  UNL1        0.0975
      5 N          63.2059   87.6723   12.4534 N.2     1  UNL1       -0.2200
      6 C          63.1189   89.1086   12.8771 C.2     1  UNL1        0.1901
      7 N          62.1393   89.7994   11.9753 N.2     1  UNL1       -0.2236
      8 C          61.6209   88.7899   10.9943 C.2     1  UNL1        0.0863
      9 C          60.6337   88.8980    9.8701 C.3     1  UNL1        0.1112
     10 C          59.3059   89.0198    7.0449 C.3     1  UNL1        0.2520
     11 O          59.3185   87.7996    7.9172 O.2     1  UNL1       -0.4753
     12 S          63.8782   89.7427   14.0047 S.3     1  UNL1       -0.0709
     13 C          64.2213   91.2020   13.9506 C.3     1  UNL1        0.0913
     14 C          65.1208   91.7214   12.8685 C.ar    1  UNL1       -0.0109
     15 C          66.5898   91.8810   13.1266 C.ar    1  UNL1       -0.0037
     16 C          67.4894   92.4004   12.0445 C.ar    1  UNL1       -0.0046
     17 C          66.9199   92.7603   10.7043 C.ar    1  UNL1       -0.0225
     18 C          65.4509   92.6007   10.4462 C.ar    1  UNL1       -0.0046
     19 C          64.5514   92.0812   11.5283 C.ar    1  UNL1       -0.0037
     20 C          67.8194   93.2797    9.6222 C.3     1  UNL1        0.0224
     21 C          67.7781   94.7308    9.2447 C.3     1  UNL1        0.0047
     22 C          68.7603   92.3480    8.9175 C.3     1  UNL1        0.0047
@<TRIPOS>BOND
     1    10    11    1
     2    11     1    1
     3     1     2    2
     4     2     3    1
     5     3     4    2
     6     4     5    1
     7     5     6    2
     8     6    12    1
     9    12    13    1
    10    13    14    1
    11    14    15   ar
    12    15    16   ar
    13    16    17   ar
    14    17    20    1
    15    20    21    1
    16    20    22    1
    17    17    18   ar
    18    18    19   ar
    19     6     7    1
    20     7     8    2
    21     8     9    1
    22     9     1    1
    23     8     4    1
    24    19    14   ar
@<TRIPOS>MOLECULE
*****
 22 24 0 0 0
SMALL
GASTEIGER

@<TRIPOS>ATOM
      1 C          61.0655   87.8372    9.1558 C.2     1  UNL1        0.1223
      2 C          61.2117   89.3116    9.3893 C.2     1  UNL1        0.0343
      3 C          61.9389   89.8104   10.6027 C.2     1  UNL1        0.0232
      4 C          62.5200   88.8347   11.5826 C.2     1  UNL1        0.0975
      5 N          63.2835   89.0284   12.8591 N.2     1  UNL1       -0.2200
      6 C          63.6092   87.6736   13.4146 C.2     1  UNL1        0.1901
      7 N          63.0470   86.6426   12.4814 N.2     1  UNL1       -0.2236
      8 C          62.3738   87.3602   11.3491 C.2     1  UNL1        0.0863
      9 C          61.6465   86.8615   10.1357 C.3     1  UNL1        0.1112
     10 C          58.9109   86.8911    8.0546 C.3     1  UNL1        0.2520
     11 O          60.3382   87.3385    7.9424 O.2     1  UNL1       -0.4753
     12 S          64.3646   87.3982   14.6809 S.3     1  UNL1       -0.0709
     13 C          65.0092   86.0606   14.8940 C.3     1  UNL1        0.0913
     14 C          64.2594   84.8051   14.5601 C.ar    1  UNL1       -0.0109
     15 C          63.0125   84.4528   15.3157 C.ar    1  UNL1       -0.0037
     16 C          62.2627   83.1972   14.9819 C.ar    1  UNL1       -0.0046
     17 C          62.7599   82.2940   13.8923 C.ar    1  UNL1       -0.0225
     18 C          64.0069   82.6463   13.1367 C.ar    1  UNL1       -0.0046
     19 C          64.7566   83.9019   13.4706 C.ar    1  UNL1       -0.0037
     20 C          62.0102   81.0385   13.5585 C.3     1  UNL1        0.0224
     21 C          60.6525   80.7963   14.1484 C.3     1  UNL1        0.0047
     22 C          62.6181   80.0251   12.6347 C.3     1  UNL1        0.0047
@<TRIPOS>BOND
     1    10    11    1
     2    11     1    1
     3     1     2    2
     4     2     3    1
     5     3     4    2
     6     4     5    1
     7     5     6    2
     8     6    12    1
     9    12    13    1
    10    13    14    1
    11    14    15   ar
    12    15    16   ar
    13    16    17   ar
    14    17    20    1
    15    20    21    1
    16    20    22    1
    17    17    18   ar
    18    18    19   ar
    19     6     7    1
    20     7     8    2
    21     8     9    1
    22     9     1    1
    23     8     4    1
    24    19    14   ar
@<TRIPOS>MOLECULE
*****
 22 24 0 0 0
SMALL
GASTEIGER

@<TRIPOS>ATOM
      1 C          60.7430   86.8171    9.0964 C.2     1  UNL1        0.1223
      2 C          61.4533   86.2878    7.8859 C.2     1  UNL1        0.0343
      3 C          62.5028   85.2267    8.0363 C.2     1  UNL1        0.0232
      4 C          62.8422   84.6950    9.3971 C.2     1  UNL1        0.0975
      5 N          63.8242   83.6568    9.8529 N.2     1  UNL1       -0.2200
      6 C          63.7210   83.5445   11.3452 C.2     1  UNL1        0.1901
      7 N          62.6751   84.5132   11.8117 N.2     1  UNL1       -0.2236
      8 C          62.1319   85.2242   10.6077 C.2     1  UNL1        0.0863
      9 C          61.0824   86.2853   10.4573 C.3     1  UNL1        0.1112
     10 C          59.4156   88.4724    7.5971 C.3     1  UNL1        0.2520
     11 O          59.6935   87.8781    8.9460 O.2     1  UNL1       -0.4753
     12 S          64.5229   82.6248   12.2177 S.3     1  UNL1       -0.0709
     13 C          64.1300   82.4184   13.6506 C.3     1  UNL1        0.0913
     14 C          63.8584   83.6016   14.5317 C.ar    1  UNL1       -0.0109
     15 C          62.5885   83.6685   15.3271 C.ar    1  UNL1       -0.0037
     16 C          62.3168   84.8516   16.2082 C.ar    1  UNL1       -0.0046
     17 C          63.3152   85.9679   16.2939 C.ar    1  UNL1       -0.0225
     18 C          64.5851   85.9010   15.4984 C.ar    1  UNL1       -0.0046
     19 C          64.8567   84.7178   14.6173 C.ar    1  UNL1       -0.0037
     20 C          63.0435   87.1511   17.1750 C.3     1  UNL1        0.0224
     21 C          63.1440   88.5401   16.6176 C.3     1  UNL1        0.0047
     22 C          62.6715   86.9452   18.6134 C.3     1  UNL1        0.0047
@<TRIPOS>BOND
     1    10    11    1
     2    11     1    1
     3     1     2    2
     4     2     3    1
     5     3     4    2
     6     4     5    1
     7     5     6    2
     8     6    12    1
     9    12    13    1
    10    13    14    1
    11    14    15   ar
    12    15    16   ar
    13    16    17   ar
    14    17    20    1
    15    20    21    1
    16    20    22    1
    17    17    18   ar
    18    18    19   ar
    19     6     7    1
    20     7     8    2
    21     8     9    1
    22     9     1    1
    23     8     4    1
    24    19    14   ar
