@<TRIPOS>MOLECULE
*****
 37 40 0 0 0
SMALL
GASTEIGER

@<TRIPOS>ATOM
      1 C          64.2727   90.4164   13.5923 C.ar    1  UNL1        0.0527
      2 C          63.9315   90.8016   15.0013 C.ar    1  UNL1        0.0466
      3 C          63.5682   89.7439   16.0009 C.ar    1  UNL1        0.1684
      4 F          63.2271   90.1291   17.4099 F       1  UNL1       -0.2018
      5 C          63.5460   88.3010   15.5915 C.ar    1  UNL1        0.1652
      6 F          63.1827   87.2433   16.5912 F       1  UNL1       -0.2021
      7 C          63.8872   87.9158   14.1826 C.ar    1  UNL1        0.0288
      8 C          64.2505   88.9735   13.1829 C.ar    1  UNL1        0.0146
      9 C          63.8650   86.4729   13.7732 C.3     1  UNL1        0.1085
     10 C          64.6961   86.3777   15.0182 C.3     1  UNL1        0.0291
     11 C          63.0415   87.0691   12.6704 C.3     1  UNL1        0.0425
     12 C          62.4845   86.1895   11.5906 C.3     1  UNL1        0.0829
     13 S          62.7510   84.7136   11.6136 S.3     1  UNL1       -0.0770
     14 C          63.5745   84.1173   12.7165 C.2     1  UNL1        0.1484
     15 N          63.8409   82.6413   12.7396 N.pl3   1  UNL1       -0.3380
     16 N          64.1314   84.9970   13.7963 N.2     1  UNL1       -0.2508
     17 H          63.4754   82.0640   12.0309 H       1  UNL1        0.1442
     18 H          64.3814   82.2499   13.4634 H       1  UNL1        0.1442
     19 C          61.6610   86.7858   10.4877 C.ar    1  UNL1        0.0376
     20 C          60.5459   87.7749   10.6559 C.ar    1  UNL1        0.0974
     21 C          60.0585   88.3413   11.9566 C.3     1  UNL1        0.0553
     22 N          60.0038   88.0981    9.2951 N.ar    1  UNL1       -0.0821
     23 O          60.7839   87.3088    8.2859 O.2     1  UNL1       -0.3584
     24 C          61.8081   86.4977    9.0230 C.ar    1  UNL1        0.1512
     25 C          62.8044   85.5628    8.4040 C.3     1  UNL1        0.0750
     26 C          66.0007   92.0959   12.6212 C.2     1  UNL1        0.2688
     27 O          67.0020   91.6601   13.6495 O.2     1  UNL1       -0.2681
     28 N          64.6360   91.4741   12.5926 N.am    1  UNL1       -0.2790
     29 H          63.9788   91.7601   11.9178 H       1  UNL1        0.1552
     30 C          67.0906   95.2690    9.6223 C.ar    1  UNL1        0.2449
     31 C          66.4974   95.6582   10.9439 C.ar    1  UNL1        0.1565
     32 N          66.1341   94.6005   11.9435 N.ar    1  UNL1       -0.2328
     33 C          66.3640   93.1536   11.6216 C.ar    1  UNL1        0.1541
     34 C          66.9572   92.7645   10.3000 C.ar    1  UNL1        0.1258
     35 N          67.3205   93.8222    9.3004 N.ar    1  UNL1       -0.2071
     36 C          66.4155   96.8533    7.6770 C.3     1  UNL1        0.2543
     37 O          67.4540   96.3267    8.6227 O.3     1  UNL1       -0.4551
@<TRIPOS>BOND
     1    36    37    1
     2    37    30    1
     3    30    31   ar
     4    31    32   ar
     5    32    33   ar
     6    33    26    1
     7    26    27    2
     8    26    28   am
     9    28     1    1
    10     1     2   ar
    11     2     3   ar
    12     3     4    1
    13     3     5   ar
    14     5     6    1
    15     5     7   ar
    16     7     9    1
    17     9    10    1
    18     9    11    1
    19    11    12    1
    20    12    19    1
    21    19    20   ar
    22    20    21    1
    23    20    22   ar
    24    22    23   ar
    25    23    24   ar
    26    24    25    1
    27    12    13    1
    28    13    14    1
    29    14    15    1
    30    14    16    2
    31     7     8   ar
    32    33    34   ar
    33    34    35   ar
    34    35    30   ar
    35     8     1   ar
    36    16     9    1
    37    24    19   ar
    38    28    29    1
    39    15    17    1
    40    15    18    1
@<TRIPOS>MOLECULE
*****
 37 40 0 0 0
SMALL
GASTEIGER

@<TRIPOS>ATOM
      1 C          63.6791   86.6072   14.7879 C.ar    1  UNL1        0.0527
      2 C          63.4312   86.9838   16.2186 C.ar    1  UNL1        0.0466
      3 C          63.4441   88.4271   16.6272 C.ar    1  UNL1        0.1684
      4 F          63.1963   88.8037   18.0578 F       1  UNL1       -0.2018
      5 C          63.7047   89.4936   15.6052 C.ar    1  UNL1        0.1652
      6 F          63.7176   90.9368   16.0138 F       1  UNL1       -0.2021
      7 C          63.9525   89.1170   14.1746 C.ar    1  UNL1        0.0288
      8 C          63.9397   87.6737   13.7660 C.ar    1  UNL1        0.0146
      9 C          64.2132   90.1835   13.1526 C.3     1  UNL1        0.1085
     10 C          65.2543   90.5397   14.1720 C.3     1  UNL1        0.0291
     11 C          63.0816   89.4570   12.4880 C.3     1  UNL1        0.0425
     12 C          62.5723   89.9207   11.1555 C.3     1  UNL1        0.0829
     13 S          63.1945   91.1109   10.4876 S.3     1  UNL1       -0.0770
     14 C          64.3261   91.8375   11.1521 C.2     1  UNL1        0.1484
     15 N          64.9483   93.0277   10.4842 N.pl3   1  UNL1       -0.3380
     16 N          64.8354   91.3737   12.4846 N.2     1  UNL1       -0.2508
     17 H          64.6139   93.3321    9.6096 H       1  UNL1        0.1442
     18 H          65.6910   93.5046   10.9203 H       1  UNL1        0.1442
     19 C          61.4407   89.1941   10.4909 C.ar    1  UNL1        0.0376
     20 C          61.5582   87.9510    9.6599 C.ar    1  UNL1        0.0974
     21 C          62.8280   87.2161    9.3474 C.3     1  UNL1        0.0553
     22 N          60.1830   87.5717    9.1961 N.ar    1  UNL1       -0.0821
     23 O          59.2156   88.5805    9.7405 O.2     1  UNL1       -0.3584
     24 C          59.9929   89.5832   10.5408 C.ar    1  UNL1        0.1512
     25 C          59.4225   90.7671   11.2640 C.3     1  UNL1        0.0750
     26 C          62.7997   84.7146   13.2404 C.2     1  UNL1        0.2688
     27 O          61.9461   85.7085   12.5101 O.2     1  UNL1       -0.2681
     28 N          63.6662   85.1640   14.3793 N.am    1  UNL1       -0.2790
     29 H          64.2265   84.5117   14.8587 H       1  UNL1        0.1552
     30 C          62.7612   80.3850   12.0146 C.ar    1  UNL1        0.2449
     31 C          62.3395   80.7760   13.3999 C.ar    1  UNL1        0.1565
     32 N          62.3523   82.2192   13.8085 N.ar    1  UNL1       -0.2328
     33 C          62.7869   83.2714   12.8318 C.ar    1  UNL1        0.1541
     34 C          63.2086   82.8804   11.4465 C.ar    1  UNL1        0.1258
     35 N          63.1958   81.4372   11.0379 N.ar    1  UNL1       -0.2071
     36 C          62.7866   78.5734   10.1524 C.3     1  UNL1        0.2543
     37 O          62.7484   78.9418   11.6060 O.3     1  UNL1       -0.4551
@<TRIPOS>BOND
     1    36    37    1
     2    37    30    1
     3    30    31   ar
     4    31    32   ar
     5    32    33   ar
     6    33    26    1
     7    26    27    2
     8    26    28   am
     9    28     1    1
    10     1     2   ar
    11     2     3   ar
    12     3     4    1
    13     3     5   ar
    14     5     6    1
    15     5     7   ar
    16     7     9    1
    17     9    10    1
    18     9    11    1
    19    11    12    1
    20    12    19    1
    21    19    20   ar
    22    20    21    1
    23    20    22   ar
    24    22    23   ar
    25    23    24   ar
    26    24    25    1
    27    12    13    1
    28    13    14    1
    29    14    15    1
    30    14    16    2
    31     7     8   ar
    32    33    34   ar
    33    34    35   ar
    34    35    30   ar
    35     8     1   ar
    36    16     9    1
    37    24    19   ar
    38    28    29    1
    39    15    17    1
    40    15    18    1
@<TRIPOS>MOLECULE
*****
 37 40 0 0 0
SMALL
GASTEIGER

@<TRIPOS>ATOM
      1 C          63.6801   86.6047   14.8115 C.ar    1  UNL1        0.0527
      2 C          63.4354   86.9806   16.2430 C.ar    1  UNL1        0.0466
      3 C          63.4531   88.4233   16.6531 C.ar    1  UNL1        0.1684
      4 F          63.2084   88.7992   18.0845 F       1  UNL1       -0.2018
      5 C          63.7154   89.4902   15.6318 C.ar    1  UNL1        0.1652
      6 F          63.7330   90.9329   16.0419 F       1  UNL1       -0.2021
      7 C          63.9600   89.1144   14.2004 C.ar    1  UNL1        0.0288
      8 C          63.9424   87.6716   13.7903 C.ar    1  UNL1        0.0146
      9 C          64.2223   90.1812   13.1792 C.3     1  UNL1        0.1085
     10 C          65.2603   90.5384   14.2015 C.3     1  UNL1        0.0291
     11 C          63.0933   89.4537   12.5116 C.3     1  UNL1        0.0425
     12 C          62.5870   89.9169   11.1778 C.3     1  UNL1        0.0829
     13 S          63.2098   91.1078   10.5116 S.3     1  UNL1       -0.0770
     14 C          64.3389   91.8355   11.1792 C.2     1  UNL1        0.1484
     15 N          64.9616   93.0264   10.5130 N.pl3   1  UNL1       -0.3380
     16 N          64.8451   91.3722   12.5130 N.2     1  UNL1       -0.2508
     17 H          64.6293   93.3305    9.6376 H       1  UNL1        0.1442
     18 H          65.7027   93.5040   10.9512 H       1  UNL1        0.1442
     19 C          61.4579   89.1893   10.5101 C.ar    1  UNL1        0.0376
     20 C          60.0095   89.5762   10.5571 C.ar    1  UNL1        0.0974
     21 C          59.4358   90.7587   11.2800 C.3     1  UNL1        0.0553
     22 N          59.2354   88.5730    9.7543 N.ar    1  UNL1       -0.0821
     23 O          60.2055   87.5660    9.2112 O.2     1  UNL1       -0.3584
     24 C          61.5791   87.9470    9.6784 C.ar    1  UNL1        0.1512
     25 C          62.8506   87.2141    9.3681 C.3     1  UNL1        0.0750
     26 C          62.8271   84.7240   13.2351 C.2     1  UNL1        0.2688
     27 O          62.0093   85.7287   12.4790 O.2     1  UNL1       -0.2681
     28 N          63.6624   85.1620   14.4014 N.am    1  UNL1       -0.2790
     29 H          64.1992   84.5026   14.8977 H       1  UNL1        0.1552
     30 C          62.7741   80.3958   12.0047 C.ar    1  UNL1        0.2449
     31 C          63.1749   81.4514   11.0172 C.ar    1  UNL1        0.1565
     32 N          63.1925   82.8941   11.4274 N.ar    1  UNL1       -0.2328
     33 C          62.8094   83.2813   12.8249 C.ar    1  UNL1        0.1541
     34 C          62.4087   82.2257   13.8124 C.ar    1  UNL1        0.1258
     35 N          62.3910   80.7830   13.4022 N.ar    1  UNL1       -0.2071
     36 C          62.7929   78.5862   10.1406 C.3     1  UNL1        0.2543
     37 O          62.7565   78.9531   11.5945 O.3     1  UNL1       -0.4551
@<TRIPOS>BOND
     1    36    37    1
     2    37    30    1
     3    30    31   ar
     4    31    32   ar
     5    32    33   ar
     6    33    26    1
     7    26    27    2
     8    26    28   am
     9    28     1    1
    10     1     2   ar
    11     2     3   ar
    12     3     4    1
    13     3     5   ar
    14     5     6    1
    15     5     7   ar
    16     7     9    1
    17     9    10    1
    18     9    11    1
    19    11    12    1
    20    12    19    1
    21    19    20   ar
    22    20    21    1
    23    20    22   ar
    24    22    23   ar
    25    23    24   ar
    26    24    25    1
    27    12    13    1
    28    13    14    1
    29    14    15    1
    30    14    16    2
    31     7     8   ar
    32    33    34   ar
    33    34    35   ar
    34    35    30   ar
    35     8     1   ar
    36    16     9    1
    37    24    19   ar
    38    28    29    1
    39    15    17    1
    40    15    18    1
@<TRIPOS>MOLECULE
*****
 37 40 0 0 0
SMALL
GASTEIGER

@<TRIPOS>ATOM
      1 C          63.0300   88.3196   11.8929 C.ar    1  UNL1        0.0527
      2 C          62.4686   88.9728   10.6647 C.ar    1  UNL1        0.0466
      3 C          62.6895   90.4372   10.4267 C.ar    1  UNL1        0.1684
      4 F          62.1282   91.0905    9.1986 F       1  UNL1       -0.2018
      5 C          63.4718   91.2484   11.4168 C.ar    1  UNL1        0.1652
      6 F          63.6926   92.7128   11.1787 F       1  UNL1       -0.2021
      7 C          64.0330   90.5952   12.6448 C.ar    1  UNL1        0.0288
      8 C          63.8122   89.1307   12.8829 C.ar    1  UNL1        0.0146
      9 C          64.8152   91.4063   13.6348 C.3     1  UNL1        0.1085
     10 C          64.0584   90.5117   14.5712 C.3     1  UNL1        0.0291
     11 C          65.3005   92.0193   12.3547 C.3     1  UNL1        0.0425
     12 C          66.3050   93.1326   12.3897 C.3     1  UNL1        0.0829
     13 S          66.8244   93.6331   13.7049 S.3     1  UNL1       -0.0770
     14 C          66.3391   93.0202   14.9851 C.2     1  UNL1        0.1484
     15 N          66.8584   93.5207   16.3003 N.pl3   1  UNL1       -0.3380
     16 N          65.3346   91.9068   14.9500 N.2     1  UNL1       -0.2508
     17 H          67.5178   94.2514   16.3233 H       1  UNL1        0.1442
     18 H          66.5400   93.1184   17.1406 H       1  UNL1        0.1442
     19 C          66.7903   93.7456   11.1095 C.ar    1  UNL1        0.0376
     20 C          67.6016   93.0553   10.0535 C.ar    1  UNL1        0.0974
     21 C          68.0701   91.6308   10.0922 C.3     1  UNL1        0.0553
     22 N          67.8621   94.0395    8.9519 N.ar    1  UNL1       -0.0821
     23 O          67.2118   95.3381    9.3271 O.2     1  UNL1       -0.3584
     24 C          66.5493   95.1564   10.6607 C.ar    1  UNL1        0.1512
     25 C          65.7809   96.2020   11.4131 C.3     1  UNL1        0.0750
     26 C          63.4056   86.1931   13.3374 C.2     1  UNL1        0.2688
     27 O          64.2231   86.9954   14.3059 O.2     1  UNL1       -0.2681
     28 N          62.8091   86.8551   12.1309 N.am    1  UNL1       -0.2790
     29 H          62.2726   86.3285   11.4952 H       1  UNL1        0.1552
     30 C          62.7430   81.7998   14.0516 C.ar    1  UNL1        0.2449
     31 C          62.4862   82.3862   12.6951 C.ar    1  UNL1        0.1565
     32 N          62.7071   83.8507   12.4570 N.ar    1  UNL1       -0.2328
     33 C          63.1848   84.7286   13.5755 C.ar    1  UNL1        0.1541
     34 C          63.4415   84.1422   14.9320 C.ar    1  UNL1        0.1258
     35 N          63.2207   82.6778   15.1700 N.ar    1  UNL1       -0.2071
     36 C          62.3411   79.4054   13.1267 C.3     1  UNL1        0.2543
     37 O          62.5221   80.3354   14.2896 O.3     1  UNL1       -0.4551
@<TRIPOS>BOND
     1    36    37    1
     2    37    30    1
     3    30    31   ar
     4    31    32   ar
     5    32    33   ar
     6    33    26    1
     7    26    27    2
     8    26    28   am
     9    28     1    1
    10     1     2   ar
    11     2     3   ar
    12     3     4    1
    13     3     5   ar
    14     5     6    1
    15     5     7   ar
    16     7     9    1
    17     9    10    1
    18     9    11    1
    19    11    12    1
    20    12    19    1
    21    19    20   ar
    22    20    21    1
    23    20    22   ar
    24    22    23   ar
    25    23    24   ar
    26    24    25    1
    27    12    13    1
    28    13    14    1
    29    14    15    1
    30    14    16    2
    31     7     8   ar
    32    33    34   ar
    33    34    35   ar
    34    35    30   ar
    35     8     1   ar
    36    16     9    1
    37    24    19   ar
    38    28    29    1
    39    15    17    1
    40    15    18    1
@<TRIPOS>MOLECULE
*****
 37 40 0 0 0
SMALL
GASTEIGER

@<TRIPOS>ATOM
      1 C          62.8451   88.4354   11.6284 C.ar    1  UNL1        0.0527
      2 C          62.4460   89.1239   10.3568 C.ar    1  UNL1        0.0466
      3 C          62.8044   90.5641   10.1393 C.ar    1  UNL1        0.1684
      4 F          62.4054   91.2526    8.8678 F       1  UNL1       -0.2018
      5 C          63.5620   91.3159   11.1934 C.ar    1  UNL1        0.1652
      6 F          63.9205   92.7561   10.9759 F       1  UNL1       -0.2021
      7 C          63.9611   90.6274   12.4649 C.ar    1  UNL1        0.0288
      8 C          63.6026   89.1872   12.6824 C.ar    1  UNL1        0.0146
      9 C          64.7186   91.3792   13.5189 C.3     1  UNL1        0.1085
     10 C          63.9068   90.4627   14.3854 C.3     1  UNL1        0.0291
     11 C          65.2674   92.0347   12.2864 C.3     1  UNL1        0.0425
     12 C          66.2918   93.1235   12.4087 C.3     1  UNL1        0.0829
     13 S          66.7674   93.5570   13.7637 S.3     1  UNL1       -0.0770
     14 C          66.2186   92.9015   14.9963 C.2     1  UNL1        0.1484
     15 N          66.6942   93.3350   16.3512 N.pl3   1  UNL1       -0.3380
     16 N          65.1942   91.8126   14.8738 N.2     1  UNL1       -0.2508
     17 H          67.3665   94.0497   16.4315 H       1  UNL1        0.1442
     18 H          66.3340   92.9048   17.1602 H       1  UNL1        0.1442
     19 C          66.8405   93.7790   11.1761 C.ar    1  UNL1        0.0376
     20 C          66.6483   95.2129   10.7801 C.ar    1  UNL1        0.0974
     21 C          65.8735   96.2432   11.5472 C.3     1  UNL1        0.0553
     22 N          67.3668   95.4358    9.4824 N.ar    1  UNL1       -0.0821
     23 O          68.0032   94.1395    9.0764 O.2     1  UNL1       -0.3584
     24 C          67.6779   93.1156   10.1233 C.ar    1  UNL1        0.1512
     25 C          68.1135   91.6803   10.1180 C.3     1  UNL1        0.0750
     26 C          63.1332   86.2208   12.9559 C.2     1  UNL1        0.2688
     27 O          64.1382   86.8866   13.8484 O.2     1  UNL1       -0.2681
     28 N          62.4866   86.9952   11.8458 N.am    1  UNL1       -0.2790
     29 H          61.8270   86.5583   11.2600 H       1  UNL1        0.1552
     30 C          62.0578   81.9002   13.6083 C.ar    1  UNL1        0.2449
     31 C          62.0407   82.8597   14.7611 C.ar    1  UNL1        0.1565
     32 N          62.3991   84.2999   14.5437 N.ar    1  UNL1       -0.2328
     33 C          62.7747   84.7806   13.1733 C.ar    1  UNL1        0.1541
     34 C          62.7919   83.8211   12.0205 C.ar    1  UNL1        0.1258
     35 N          62.4334   82.3809   12.2380 N.ar    1  UNL1       -0.2071
     36 C          60.2899   80.0821   14.1729 C.3     1  UNL1        0.2543
     37 O          61.6993   80.4600   13.8258 O.3     1  UNL1       -0.4551
@<TRIPOS>BOND
     1    36    37    1
     2    37    30    1
     3    30    31   ar
     4    31    32   ar
     5    32    33   ar
     6    33    26    1
     7    26    27    2
     8    26    28   am
     9    28     1    1
    10     1     2   ar
    11     2     3   ar
    12     3     4    1
    13     3     5   ar
    14     5     6    1
    15     5     7   ar
    16     7     9    1
    17     9    10    1
    18     9    11    1
    19    11    12    1
    20    12    19    1
    21    19    20   ar
    22    20    21    1
    23    20    22   ar
    24    22    23   ar
    25    23    24   ar
    26    24    25    1
    27    12    13    1
    28    13    14    1
    29    14    15    1
    30    14    16    2
    31     7     8   ar
    32    33    34   ar
    33    34    35   ar
    34    35    30   ar
    35     8     1   ar
    36    16     9    1
    37    24    19   ar
    38    28    29    1
    39    15    17    1
    40    15    18    1
@<TRIPOS>MOLECULE
*****
 37 40 0 0 0
SMALL
GASTEIGER

@<TRIPOS>ATOM
      1 C          62.0940   89.6664   12.6435 C.ar    1  UNL1        0.0527
      2 C          60.6376   89.9554   12.8567 C.ar    1  UNL1        0.0466
      3 C          59.6036   89.2435   12.0356 C.ar    1  UNL1        0.1684
      4 F          58.1473   89.5325   12.2488 F       1  UNL1       -0.2018
      5 C          60.0261   88.2427   11.0012 C.ar    1  UNL1        0.1652
      6 F          58.9922   87.5309   10.1800 F       1  UNL1       -0.2021
      7 C          61.4825   87.9537   10.7880 C.ar    1  UNL1        0.0288
      8 C          62.5164   88.6656   11.6091 C.ar    1  UNL1        0.0146
      9 C          61.9049   86.9530    9.7536 C.3     1  UNL1        0.1085
     10 C          61.3645   88.0337    8.8649 C.3     1  UNL1        0.0291
     11 C          62.2986   86.2197   11.0015 C.3     1  UNL1        0.0425
     12 C          62.9271   84.8610   10.9064 C.3     1  UNL1        0.0829
     13 S          63.1618   84.2356    9.5634 S.3     1  UNL1       -0.0770
     14 C          62.7681   84.9689    8.3154 C.2     1  UNL1        0.1484
     15 N          63.0029   84.3434    6.9724 N.pl3   1  UNL1       -0.3380
     16 N          62.1397   86.3275    8.4106 N.2     1  UNL1       -0.2508
     17 H          63.4154   83.4517    6.9100 H       1  UNL1        0.1442
     18 H          62.7445   84.8247    6.1533 H       1  UNL1        0.1442
     19 C          63.3208   84.1277   12.1544 C.ar    1  UNL1        0.0376
     20 C          63.3275   82.6390   12.3372 C.ar    1  UNL1        0.0974
     21 C          62.9417   81.6220   11.3042 C.3     1  UNL1        0.0553
     22 N          63.7877   82.3456   13.7344 N.ar    1  UNL1       -0.0821
     23 O          64.0655   83.6532   14.4151 O.2     1  UNL1       -0.3584
     24 C          63.7768   84.7546   13.4385 C.ar    1  UNL1        0.1512
     25 C          63.9193   86.2246   13.7002 C.3     1  UNL1        0.0750
     26 C          64.1282   91.2751   12.7977 C.2     1  UNL1        0.2688
     27 O          64.0946   91.4601   11.3096 O.2     1  UNL1       -0.2681
     28 N          63.1279   90.3782   13.4647 N.am    1  UNL1       -0.2790
     29 H          63.1499   90.2567   14.4414 H       1  UNL1        0.1552
     30 C          67.2300   93.4105   15.2612 C.ar    1  UNL1        0.2449
     31 C          66.1252   92.6544   15.9377 C.ar    1  UNL1        0.1565
     32 N          65.0913   91.9426   15.1165 N.ar    1  UNL1       -0.2328
     33 C          65.1621   91.9869   13.6189 C.ar    1  UNL1        0.1541
     34 C          66.2669   92.7430   12.9424 C.ar    1  UNL1        0.1258
     35 N          67.3008   93.4549   13.7636 N.ar    1  UNL1       -0.2071
     36 C          69.7208   93.8438   15.8595 C.3     1  UNL1        0.2543
     37 O          68.2639   94.1224   16.0824 O.3     1  UNL1       -0.4551
@<TRIPOS>BOND
     1    36    37    1
     2    37    30    1
     3    30    31   ar
     4    31    32   ar
     5    32    33   ar
     6    33    26    1
     7    26    27    2
     8    26    28   am
     9    28     1    1
    10     1     2   ar
    11     2     3   ar
    12     3     4    1
    13     3     5   ar
    14     5     6    1
    15     5     7   ar
    16     7     9    1
    17     9    10    1
    18     9    11    1
    19    11    12    1
    20    12    19    1
    21    19    20   ar
    22    20    21    1
    23    20    22   ar
    24    22    23   ar
    25    23    24   ar
    26    24    25    1
    27    12    13    1
    28    13    14    1
    29    14    15    1
    30    14    16    2
    31     7     8   ar
    32    33    34   ar
    33    34    35   ar
    34    35    30   ar
    35     8     1   ar
    36    16     9    1
    37    24    19   ar
    38    28    29    1
    39    15    17    1
    40    15    18    1
@<TRIPOS>MOLECULE
*****
 37 40 0 0 0
SMALL
GASTEIGER

@<TRIPOS>ATOM
      1 C          62.7967   89.5252   11.6122 C.ar    1  UNL1        0.0527
      2 C          61.4053   89.9763   11.2793 C.ar    1  UNL1        0.0466
      3 C          60.4240   89.0075   10.6890 C.ar    1  UNL1        0.1684
      4 F          59.0327   89.4585   10.3561 F       1  UNL1       -0.2018
      5 C          60.8341   87.5878   10.4315 C.ar    1  UNL1        0.1652
      6 F          59.8527   86.6190    9.8411 F       1  UNL1       -0.2021
      7 C          62.2254   87.1368   10.7643 C.ar    1  UNL1        0.0288
      8 C          63.2067   88.1056   11.3547 C.ar    1  UNL1        0.0146
      9 C          62.6354   85.7171   10.5068 C.3     1  UNL1        0.1085
     10 C          62.4615   86.1979    9.0966 C.3     1  UNL1        0.0291
     11 C          62.6668   85.7293   12.0064 C.3     1  UNL1        0.0425
     12 C          63.0479   84.4889   12.7587 C.3     1  UNL1        0.0829
     13 S          63.3975   83.2361   12.0115 S.3     1  UNL1       -0.0770
     14 C          63.3661   83.2239   10.5118 C.2     1  UNL1        0.1484
     15 N          63.7157   81.9712    9.7645 N.pl3   1  UNL1       -0.3380
     16 N          62.9850   84.4644    9.7595 N.2     1  UNL1       -0.2508
     17 H          63.9658   81.1570   10.2583 H       1  UNL1        0.1442
     18 H          63.6950   81.9631    8.7803 H       1  UNL1        0.1442
     19 C          63.0794   84.5011   14.2584 C.ar    1  UNL1        0.0376
     20 C          63.7602   85.5249   15.1176 C.ar    1  UNL1        0.0974
     21 C          64.5290   86.7162   14.6281 C.3     1  UNL1        0.0553
     22 N          63.5371   85.1483   16.5523 N.ar    1  UNL1       -0.0821
     23 O          62.7184   83.8916   16.5798 O.2     1  UNL1       -0.3584
     24 C          62.4355   83.4917   15.1619 C.ar    1  UNL1        0.1512
     25 C          61.6472   82.2929   14.7247 C.3     1  UNL1        0.0750
     26 C          64.1102   90.4283   13.6638 C.2     1  UNL1        0.2688
     27 O          63.4611   89.3938   14.5347 O.2     1  UNL1       -0.2681
     28 N          63.7780   90.4940   12.2026 N.am    1  UNL1       -0.2790
     29 H          64.2041   91.1729   11.6310 H       1  UNL1        0.1552
     30 C          67.0542   93.3345   15.4349 C.ar    1  UNL1        0.2449
     31 C          65.9476   92.7785   16.2812 C.ar    1  UNL1        0.1565
     32 N          64.9663   91.8098   15.6908 N.ar    1  UNL1       -0.2328
     33 C          65.0916   91.3970   14.2542 C.ar    1  UNL1        0.1541
     34 C          66.1982   91.9530   13.4079 C.ar    1  UNL1        0.1258
     35 N          67.1795   92.9217   13.9983 N.ar    1  UNL1       -0.2071
     36 C          69.5069   94.0229   15.9451 C.3     1  UNL1        0.2543
     37 O          68.0356   94.3032   16.0253 O.3     1  UNL1       -0.4551
@<TRIPOS>BOND
     1    36    37    1
     2    37    30    1
     3    30    31   ar
     4    31    32   ar
     5    32    33   ar
     6    33    26    1
     7    26    27    2
     8    26    28   am
     9    28     1    1
    10     1     2   ar
    11     2     3   ar
    12     3     4    1
    13     3     5   ar
    14     5     6    1
    15     5     7   ar
    16     7     9    1
    17     9    10    1
    18     9    11    1
    19    11    12    1
    20    12    19    1
    21    19    20   ar
    22    20    21    1
    23    20    22   ar
    24    22    23   ar
    25    23    24   ar
    26    24    25    1
    27    12    13    1
    28    13    14    1
    29    14    15    1
    30    14    16    2
    31     7     8   ar
    32    33    34   ar
    33    34    35   ar
    34    35    30   ar
    35     8     1   ar
    36    16     9    1
    37    24    19   ar
    38    28    29    1
    39    15    17    1
    40    15    18    1
@<TRIPOS>MOLECULE
*****
 37 40 0 0 0
SMALL
GASTEIGER

@<TRIPOS>ATOM
      1 C          63.7510   86.6508   14.2592 C.ar    1  UNL1        0.0527
      2 C          63.5575   86.8845   15.7282 C.ar    1  UNL1        0.0466
      3 C          63.5270   88.2840   16.2674 C.ar    1  UNL1        0.1684
      4 F          63.3335   88.5177   17.7364 F       1  UNL1       -0.2018
      5 C          63.6900   89.4497   15.3375 C.ar    1  UNL1        0.1652
      6 F          63.6596   90.8491   15.8767 F       1  UNL1       -0.2021
      7 C          63.8835   89.2159   13.8686 C.ar    1  UNL1        0.0288
      8 C          63.9140   87.8165   13.3294 C.ar    1  UNL1        0.0146
      9 C          64.0465   90.3816   12.9388 C.3     1  UNL1        0.1085
     10 C          62.8533   89.7180   12.3177 C.3     1  UNL1        0.0291
     11 C          65.1832   90.6405   13.8827 C.3     1  UNL1        0.0425
     12 C          66.0683   91.8346   13.6812 C.3     1  UNL1        0.0829
     13 S          65.8170   92.7698   12.5357 S.3     1  UNL1       -0.0770
     14 C          64.6803   92.5109   11.5917 C.2     1  UNL1        0.1484
     15 N          64.4290   93.4461   10.4462 N.pl3   1  UNL1       -0.3380
     16 N          63.7952   91.3168   11.7933 N.2     1  UNL1       -0.2508
     17 H          65.0100   94.2298   10.3140 H       1  UNL1        0.1442
     18 H          63.6830   93.2762    9.8266 H       1  UNL1        0.1442
     19 C          67.2050   92.0934   14.6252 C.ar    1  UNL1        0.0376
     20 C          67.0812   92.4757   16.0704 C.ar    1  UNL1        0.0974
     21 C          65.7991   92.6662   16.8253 C.3     1  UNL1        0.0553
     22 N          68.4647   92.6340   16.6281 N.ar    1  UNL1       -0.0821
     23 O          69.4435   92.3496   15.5276 O.2     1  UNL1       -0.3584
     24 C          68.6649   92.0155   14.2897 C.ar    1  UNL1        0.1512
     25 C          69.2445   91.6650   12.9514 C.3     1  UNL1        0.0750
     26 C          62.6523   84.3092   14.0152 C.2     1  UNL1        0.2688
     27 O          61.4927   84.7664   14.8496 O.2     1  UNL1       -0.2681
     28 N          63.7814   85.2514   13.7200 N.am    1  UNL1       -0.2790
     29 H          64.5426   84.9514   13.1724 H       1  UNL1        0.1552
     30 C          62.7437   80.1109   12.3977 C.ar    1  UNL1        0.2449
     31 C          62.5435   80.3449   13.8657 C.ar    1  UNL1        0.1565
     32 N          62.5130   81.7443   14.4049 N.ar    1  UNL1       -0.2328
     33 C          62.6827   82.9098   13.4761 C.ar    1  UNL1        0.1541
     34 C          62.8829   82.6758   12.0080 C.ar    1  UNL1        0.1258
     35 N          62.9134   81.2764   11.4689 N.ar    1  UNL1       -0.2071
     36 C          62.7221   78.4769   10.3780 C.3     1  UNL1        0.2543
     37 O          62.7741   78.7115   11.8586 O.3     1  UNL1       -0.4551
@<TRIPOS>BOND
     1    36    37    1
     2    37    30    1
     3    30    31   ar
     4    31    32   ar
     5    32    33   ar
     6    33    26    1
     7    26    27    2
     8    26    28   am
     9    28     1    1
    10     1     2   ar
    11     2     3   ar
    12     3     4    1
    13     3     5   ar
    14     5     6    1
    15     5     7   ar
    16     7     9    1
    17     9    10    1
    18     9    11    1
    19    11    12    1
    20    12    19    1
    21    19    20   ar
    22    20    21    1
    23    20    22   ar
    24    22    23   ar
    25    23    24   ar
    26    24    25    1
    27    12    13    1
    28    13    14    1
    29    14    15    1
    30    14    16    2
    31     7     8   ar
    32    33    34   ar
    33    34    35   ar
    34    35    30   ar
    35     8     1   ar
    36    16     9    1
    37    24    19   ar
    38    28    29    1
    39    15    17    1
    40    15    18    1
@<TRIPOS>MOLECULE
*****
 37 40 0 0 0
SMALL
GASTEIGER

@<TRIPOS>ATOM
      1 C          62.9519   87.6418   12.0913 C.ar    1  UNL1        0.0527
      2 C          62.3023   88.2755   10.8969 C.ar    1  UNL1        0.0466
      3 C          62.3480   89.7644   10.7202 C.ar    1  UNL1        0.1684
      4 F          61.6984   90.3982    9.5260 F       1  UNL1       -0.2018
      5 C          63.0433   90.6195   11.7379 C.ar    1  UNL1        0.1652
      6 F          63.0890   92.1083   11.5611 F       1  UNL1       -0.2021
      7 C          63.6928   89.9857   12.9321 C.ar    1  UNL1        0.0288
      8 C          63.6471   88.4968   13.1088 C.ar    1  UNL1        0.0146
      9 C          64.3881   90.8407   13.9497 C.3     1  UNL1        0.1085
     10 C          63.3841   90.1549   14.8281 C.3     1  UNL1        0.0291
     11 C          65.1508   91.2296   12.7180 C.3     1  UNL1        0.0425
     12 C          66.2599   92.2353   12.8089 C.3     1  UNL1        0.0829
     13 S          66.6065   92.8522   14.1315 S.3     1  UNL1       -0.0770
     14 C          65.8438   92.4633   15.3632 C.2     1  UNL1        0.1484
     15 N          66.1904   93.0802   16.6859 N.pl3   1  UNL1       -0.3380
     16 N          64.7347   91.4576   15.2723 N.2     1  UNL1       -0.2508
     17 H          66.9184   93.7403   16.7455 H       1  UNL1        0.1442
     18 H          65.6899   92.8250   17.4943 H       1  UNL1        0.1442
     19 C          67.0225   92.6242   11.5771 C.ar    1  UNL1        0.0376
     20 C          68.3749   92.1118   11.1790 C.ar    1  UNL1        0.0974
     21 C          69.2021   91.1206   11.9427 C.3     1  UNL1        0.0553
     22 N          68.7548   92.7646    9.8830 N.ar    1  UNL1       -0.0821
     23 O          67.6372   93.6805    9.4802 O.2     1  UNL1       -0.3584
     24 C          66.5666   93.5936   10.5273 C.ar    1  UNL1        0.1512
     25 C          65.2681   94.3445   10.5248 C.3     1  UNL1        0.0750
     26 C          62.9216   85.2543   11.0671 C.2     1  UNL1        0.2688
     27 O          62.9827   85.8445    9.6895 O.2     1  UNL1       -0.2681
     28 N          62.9062   86.1529   12.2680 N.am    1  UNL1       -0.2790
     29 H          62.8661   85.7655   13.1722 H       1  UNL1        0.1552
     30 C          62.7845   80.7877   11.5973 C.ar    1  UNL1        0.2449
     31 C          62.3645   81.6895   12.7199 C.ar    1  UNL1        0.1565
     32 N          62.4101   83.1783   12.5432 N.ar    1  UNL1       -0.2328
     33 C          62.8759   83.7654   11.2438 C.ar    1  UNL1        0.1541
     34 C          63.2959   82.8637   10.1212 C.ar    1  UNL1        0.1258
     35 N          63.2502   81.3748   10.2979 N.ar    1  UNL1       -0.2071
     36 C          62.7658   78.3999   10.5735 C.3     1  UNL1        0.2543
     37 O          62.7388   79.2989   11.7740 O.3     1  UNL1       -0.4551
@<TRIPOS>BOND
     1    36    37    1
     2    37    30    1
     3    30    31   ar
     4    31    32   ar
     5    32    33   ar
     6    33    26    1
     7    26    27    2
     8    26    28   am
     9    28     1    1
    10     1     2   ar
    11     2     3   ar
    12     3     4    1
    13     3     5   ar
    14     5     6    1
    15     5     7   ar
    16     7     9    1
    17     9    10    1
    18     9    11    1
    19    11    12    1
    20    12    19    1
    21    19    20   ar
    22    20    21    1
    23    20    22   ar
    24    22    23   ar
    25    23    24   ar
    26    24    25    1
    27    12    13    1
    28    13    14    1
    29    14    15    1
    30    14    16    2
    31     7     8   ar
    32    33    34   ar
    33    34    35   ar
    34    35    30   ar
    35     8     1   ar
    36    16     9    1
    37    24    19   ar
    38    28    29    1
    39    15    17    1
    40    15    18    1
