@<TRIPOS>MOLECULE
*****
 31 33 0 0 0
SMALL
GASTEIGER

@<TRIPOS>ATOM
      1 C          61.0363   88.4793   11.1779 C.2     1  UNL1        0.2432
      2 O          59.8209   88.8449   11.9774 O.2     1  UNL1       -0.2732
      3 N          62.3609   89.1063   11.4977 N.am    1  UNL1       -0.2990
      4 H          63.1586   88.8664   10.9730 H       1  UNL1        0.1498
      5 C          62.3920   85.5117   11.1068 C.2     1  UNL1        0.2715
      6 O          62.6754   86.2819   12.3623 O.2     1  UNL1       -0.2705
      7 N          61.5502   86.1226   10.0259 N.am    1  UNL1       -0.1715
      8 N          61.1839   85.4767    8.7226 N.2     1  UNL1       -0.1784
      9 C          60.3342   86.4417    7.9498 C.2     1  UNL1        0.0938
     10 C          60.1756   87.6838    8.7755 C.3     1  UNL1        0.0799
     11 C          60.9271   87.4867   10.0586 C.3     1  UNL1        0.1808
     12 C          62.9503   84.1305   10.9322 C.3     1  UNL1        0.1885
     13 O          63.6517   83.7606    9.6589 O.3     1  UNL1       -0.3757
     14 H          63.6568   84.5230    9.0593 H       1  UNL1        0.2110
     15 C          62.8072   83.1192   12.0307 C.3     1  UNL1        0.0388
     16 C          63.0198   81.6628   11.7417 C.3     1  UNL1        0.0030
     17 C          61.5698   80.9987   13.7927 C.3     1  UNL1        0.0000
     18 C          62.5517   80.6276   12.7212 C.3     1  UNL1        0.0001
     19 C          62.4701   90.0989   12.6170 C.3     1  UNL1        0.1179
     20 C          63.7887   90.7475   12.9183 C.ar    1  UNL1        0.0161
     21 C          64.3336   91.8009   11.9999 C.ar    1  UNL1        0.0103
     22 C          65.6521   92.4495   12.3011 C.ar    1  UNL1        0.0575
     23 CL         66.1971   93.5028   11.3827 Cl      1  UNL1       -0.0823
     24 C          66.4257   92.0447   13.5208 C.ar    1  UNL1        0.0129
     25 C          65.8808   90.9914   14.4393 C.ar    1  UNL1        0.0199
     26 C          64.5623   90.3428   14.1380 C.ar    1  UNL1        0.0839
     27 N          64.0173   89.2894   15.0564 N.ar    1  UNL1       -0.1889
     28 C          63.2211   89.5336   16.3040 C.ar    1  UNL1        0.2258
     29 N          62.8846   88.2020   16.9072 N.ar    1  UNL1       -0.1045
     30 N          63.4729   87.1349   16.0324 N.ar    1  UNL1       -0.0222
     31 N          64.1729   87.8070   14.8886 N.ar    1  UNL1       -0.0385
@<TRIPOS>BOND
     1    17    18    1
     2    18    16    1
     3    16    15    1
     4    15    12    1
     5    12    13    1
     6    12     5    1
     7     5     6    2
     8     5     7   am
     9     7     8    1
    10     8     9    2
    11     9    10    1
    12    10    11    1
    13    11     1    1
    14     1     2    2
    15     1     3   am
    16     3    19    1
    17    19    20    1
    18    20    21   ar
    19    21    22   ar
    20    22    23    1
    21    22    24   ar
    22    24    25   ar
    23    25    26   ar
    24    26    27    1
    25    27    28   ar
    26    28    29   ar
    27    29    30   ar
    28    30    31   ar
    29    11     7    1
    30    26    20   ar
    31    31    27   ar
    32    13    14    1
    33     3     4    1
@<TRIPOS>MOLECULE
*****
 31 33 0 0 0
SMALL
GASTEIGER

@<TRIPOS>ATOM
      1 C          62.2792   88.7560   11.8638 C.2     1  UNL1        0.2432
      2 O          60.7844   88.7861   11.7422 O.2     1  UNL1       -0.2732
      3 N          62.9822   87.4630   12.1540 N.am    1  UNL1       -0.2990
      4 H          63.9632   87.4432   12.2339 H       1  UNL1        0.1498
      5 C          63.7453   90.4335   14.2484 C.2     1  UNL1        0.2715
      6 O          63.0243   89.2057   14.7204 O.2     1  UNL1       -0.2705
      7 N          63.7449   90.7898   12.7913 N.am    1  UNL1       -0.1715
      8 N          64.4183   91.9798   12.1745 N.2     1  UNL1       -0.1784
      9 C          64.1606   91.9441   10.6972 C.2     1  UNL1        0.0938
     10 C          63.3280   90.7321   10.4010 C.3     1  UNL1        0.0799
     11 C          63.0710   90.0187   11.6952 C.3     1  UNL1        0.1808
     12 C          64.4666   91.3049   15.2334 C.3     1  UNL1        0.1885
     13 O          63.7260   91.8919   16.3983 O.3     1  UNL1       -0.3757
     14 H          62.7980   91.6116   16.3660 H       1  UNL1        0.2110
     15 C          65.9283   91.5893   15.0536 C.3     1  UNL1        0.0388
     16 C          66.4171   93.0069   15.0127 C.3     1  UNL1        0.0030
     17 C          68.6601   92.2965   16.1145 C.3     1  UNL1        0.0000
     18 C          67.7130   93.3728   15.6736 C.3     1  UNL1        0.0001
     19 C          62.1903   86.2002   12.3226 C.3     1  UNL1        0.1179
     20 C          62.8946   84.8781   12.4009 C.ar    1  UNL1        0.0161
     21 C          63.2183   84.1252   11.1446 C.ar    1  UNL1        0.0103
     22 C          63.9226   82.8032   11.2228 C.ar    1  UNL1        0.0575
     23 CL         64.2462   82.0503    9.9665 Cl      1  UNL1       -0.0823
     24 C          64.3032   82.2340   12.5574 C.ar    1  UNL1        0.0129
     25 C          63.9795   82.9870   13.8138 C.ar    1  UNL1        0.0199
     26 C          63.2752   84.3090   13.7355 C.ar    1  UNL1        0.0839
     27 N          62.9516   85.0619   14.9918 N.ar    1  UNL1       -0.1889
     28 C          63.8659   86.0068   15.7138 C.ar    1  UNL1        0.2258
     29 N          63.1362   86.5310   16.9150 N.ar    1  UNL1       -0.1045
     30 N          61.7709   85.9101   16.9353 N.ar    1  UNL1       -0.0222
     31 N          61.6568   85.0022   15.7468 N.ar    1  UNL1       -0.0385
@<TRIPOS>BOND
     1    17    18    1
     2    18    16    1
     3    16    15    1
     4    15    12    1
     5    12    13    1
     6    12     5    1
     7     5     6    2
     8     5     7   am
     9     7     8    1
    10     8     9    2
    11     9    10    1
    12    10    11    1
    13    11     1    1
    14     1     2    2
    15     1     3   am
    16     3    19    1
    17    19    20    1
    18    20    21   ar
    19    21    22   ar
    20    22    23    1
    21    22    24   ar
    22    24    25   ar
    23    25    26   ar
    24    26    27    1
    25    27    28   ar
    26    28    29   ar
    27    29    30   ar
    28    30    31   ar
    29    11     7    1
    30    26    20   ar
    31    31    27   ar
    32    13    14    1
    33     3     4    1
@<TRIPOS>MOLECULE
*****
 31 33 0 0 0
SMALL
GASTEIGER

@<TRIPOS>ATOM
      1 C          61.6200   89.9037   10.3855 C.2     1  UNL1        0.2432
      2 O          60.6962   90.7901   11.1671 O.2     1  UNL1       -0.2732
      3 N          63.0716   90.2598   10.2579 N.am    1  UNL1       -0.2990
      4 H          63.6778   89.6780    9.7449 H       1  UNL1        0.1498
      5 C          62.3549   86.8359   11.2210 C.2     1  UNL1        0.2715
      6 O          63.0378   87.8765   12.0582 O.2     1  UNL1       -0.2705
      7 N          61.4300   87.2511   10.1155 N.am    1  UNL1       -0.1715
      8 N          60.6806   86.3291    9.2000 N.2     1  UNL1       -0.1784
      9 C          59.8795   87.1695    8.2501 C.2     1  UNL1        0.0938
     10 C          60.1339   88.6108    8.5786 C.3     1  UNL1        0.0799
     11 C          61.0922   88.6613    9.7315 C.3     1  UNL1        0.1808
     12 C          62.5971   85.3801   11.4893 C.3     1  UNL1        0.1885
     13 O          62.7413   84.4206   10.3454 O.3     1  UNL1       -0.3757
     14 H          62.6527   84.9009    9.5073 H       1  UNL1        0.2110
     15 C          62.6951   84.8839   12.9014 C.3     1  UNL1        0.0388
     16 C          64.0218   84.4571   13.4561 C.3     1  UNL1        0.0030
     17 C          64.5449   86.5797   14.8598 C.3     1  UNL1        0.0000
     18 C          64.5474   85.0871   14.7117 C.3     1  UNL1        0.0001
     19 C          63.5993   91.5022   10.9119 C.3     1  UNL1        0.1179
     20 C          64.1890   91.4321   12.2894 C.ar    1  UNL1        0.0161
     21 C          63.4877   90.6594   13.3669 C.ar    1  UNL1        0.0103
     22 C          64.0773   90.5893   14.7444 C.ar    1  UNL1        0.0575
     23 CL         63.3761   89.8166   15.8220 Cl      1  UNL1       -0.0823
     24 C          65.3682   91.2919   15.0443 C.ar    1  UNL1        0.0129
     25 C          66.0694   92.0646   13.9667 C.ar    1  UNL1        0.0199
     26 C          65.4798   92.1347   12.5892 C.ar    1  UNL1        0.0839
     27 N          66.1811   92.9075   11.5117 N.ar    1  UNL1       -0.1889
     28 C          65.7311   94.2141   10.9284 C.ar    1  UNL1        0.2258
     29 N          66.7273   94.6234    9.8844 N.ar    1  UNL1       -0.1045
     30 N          67.7931   93.5697    9.8225 N.ar    1  UNL1       -0.0222
     31 N          67.4555   92.5092   10.8281 N.ar    1  UNL1       -0.0385
@<TRIPOS>BOND
     1    17    18    1
     2    18    16    1
     3    16    15    1
     4    15    12    1
     5    12    13    1
     6    12     5    1
     7     5     6    2
     8     5     7   am
     9     7     8    1
    10     8     9    2
    11     9    10    1
    12    10    11    1
    13    11     1    1
    14     1     2    2
    15     1     3   am
    16     3    19    1
    17    19    20    1
    18    20    21   ar
    19    21    22   ar
    20    22    23    1
    21    22    24   ar
    22    24    25   ar
    23    25    26   ar
    24    26    27    1
    25    27    28   ar
    26    28    29   ar
    27    29    30   ar
    28    30    31   ar
    29    11     7    1
    30    26    20   ar
    31    31    27   ar
    32    13    14    1
    33     3     4    1
@<TRIPOS>MOLECULE
*****
 31 33 0 0 0
SMALL
GASTEIGER

@<TRIPOS>ATOM
      1 C          62.3314   85.4566    9.7619 C.2     1  UNL1        0.2432
      2 O          63.3921   85.0229    8.7940 O.2     1  UNL1       -0.2732
      3 N          62.3680   84.9725   11.1813 N.am    1  UNL1       -0.2990
      4 H          61.6719   85.2571   11.8165 H       1  UNL1        0.1498
      5 C          61.6097   88.3649   11.0544 C.2     1  UNL1        0.2715
      6 O          62.7637   87.6723   11.7168 O.2     1  UNL1       -0.2705
      7 N          60.9023   87.7110    9.9046 N.am    1  UNL1       -0.1715
      8 N          59.7390   88.2791    9.1471 N.2     1  UNL1       -0.1784
      9 C          59.3518   87.2934    8.0848 C.2     1  UNL1        0.0938
     10 C          60.2758   86.1161    8.1858 C.3     1  UNL1        0.0799
     11 C          61.2341   86.3742    9.3105 C.3     1  UNL1        0.1808
     12 C          61.1633   89.7114   11.5418 C.3     1  UNL1        0.1885
     13 O          60.2596   89.8154   12.7345 O.3     1  UNL1       -0.3757
     14 H          60.0611   88.9265   13.0682 H       1  UNL1        0.2110
     15 C          61.6205   90.9538   10.8366 C.3     1  UNL1        0.0388
     16 C          62.9867   91.0062   10.2195 C.3     1  UNL1        0.0030
     17 C          64.3269   91.4507   12.4004 C.3     1  UNL1        0.0000
     18 C          64.1077   91.6977   10.9373 C.3     1  UNL1        0.0001
     19 C          63.4654   84.0549   11.6326 C.3     1  UNL1        0.1179
     20 C          63.1363   82.6744   12.1185 C.ar    1  UNL1        0.0161
     21 C          63.0695   81.5335   11.1470 C.ar    1  UNL1        0.0103
     22 C          62.7405   80.1530   11.6328 C.ar    1  UNL1        0.0575
     23 CL         62.6737   79.0121   10.6613 Cl      1  UNL1       -0.0823
     24 C          62.4783   79.9135   13.0901 C.ar    1  UNL1        0.0129
     25 C          62.5451   81.0544   14.0616 C.ar    1  UNL1        0.0199
     26 C          62.8742   82.4348   13.5758 C.ar    1  UNL1        0.0839
     27 N          62.9410   83.5757   14.5473 N.ar    1  UNL1       -0.1889
     28 C          64.1896   84.1505   15.1479 C.ar    1  UNL1        0.2258
     29 N          63.7912   85.2722   16.0606 N.ar    1  UNL1       -0.1045
     30 N          62.2963   85.3907   16.0242 N.ar    1  UNL1       -0.0222
     31 N          61.7709   84.3423   15.0890 N.ar    1  UNL1       -0.0385
@<TRIPOS>BOND
     1    17    18    1
     2    18    16    1
     3    16    15    1
     4    15    12    1
     5    12    13    1
     6    12     5    1
     7     5     6    2
     8     5     7   am
     9     7     8    1
    10     8     9    2
    11     9    10    1
    12    10    11    1
    13    11     1    1
    14     1     2    2
    15     1     3   am
    16     3    19    1
    17    19    20    1
    18    20    21   ar
    19    21    22   ar
    20    22    23    1
    21    22    24   ar
    22    24    25   ar
    23    25    26   ar
    24    26    27    1
    25    27    28   ar
    26    28    29   ar
    27    29    30   ar
    28    30    31   ar
    29    11     7    1
    30    26    20   ar
    31    31    27   ar
    32    13    14    1
    33     3     4    1
@<TRIPOS>MOLECULE
*****
 31 33 0 0 0
SMALL
GASTEIGER

@<TRIPOS>ATOM
      1 C          61.6529   89.9174   10.3741 C.2     1  UNL1        0.2432
      2 O          60.7518   90.8460   11.1329 O.2     1  UNL1       -0.2732
      3 N          63.1129   90.2336   10.2384 N.am    1  UNL1       -0.2990
      4 H          63.7043   89.6241    9.7404 H       1  UNL1        0.1498
      5 C          62.2977   86.8545   11.2973 C.2     1  UNL1        0.2715
      6 O          63.0050   87.8983   12.1098 O.2     1  UNL1       -0.2705
      7 N          61.3904   87.2647   10.1755 N.am    1  UNL1       -0.1715
      8 N          60.6202   86.3391    9.2811 N.2     1  UNL1       -0.1784
      9 C          59.8477   87.1750    8.3040 C.2     1  UNL1        0.0938
     10 C          60.1406   88.6171    8.5945 C.3     1  UNL1        0.0799
     11 C          61.0940   88.6726    9.7512 C.3     1  UNL1        0.1808
     12 C          62.4978   85.4004   11.6066 C.3     1  UNL1        0.1885
     13 O          62.3100   84.8990   13.0078 O.3     1  UNL1       -0.3757
     14 H          62.0625   85.6381   13.5852 H       1  UNL1        0.2110
     15 C          62.8858   84.4478   10.5148 C.3     1  UNL1        0.0388
     16 C          64.1432   83.6392   10.6368 C.3     1  UNL1        0.0030
     17 C          62.8291   81.6812   11.7275 C.3     1  UNL1        0.0000
     18 C          64.0740   82.2067   11.0763 C.3     1  UNL1        0.0001
     19 C          63.6718   91.4784   10.8613 C.3     1  UNL1        0.1179
     20 C          64.2511   91.4301   12.2442 C.ar    1  UNL1        0.0161
     21 C          63.5538   90.6551   13.3227 C.ar    1  UNL1        0.0103
     22 C          64.1330   90.6068   14.7055 C.ar    1  UNL1        0.0575
     23 CL         63.4357   89.8319   15.7841 Cl      1  UNL1       -0.0823
     24 C          65.4095   91.3334   15.0097 C.ar    1  UNL1        0.0129
     25 C          66.1067   92.1083   13.9312 C.ar    1  UNL1        0.0199
     26 C          65.5275   92.1566   12.5484 C.ar    1  UNL1        0.0839
     27 N          66.2248   92.9316   11.4698 N.ar    1  UNL1       -0.1889
     28 C          65.7750   94.2416   10.8940 C.ar    1  UNL1        0.2258
     29 N          66.7666   94.6522    9.8460 N.ar    1  UNL1       -0.1045
     30 N          67.8292   93.5960    9.7742 N.ar    1  UNL1       -0.0222
     31 N          67.4944   92.5326   10.7777 N.ar    1  UNL1       -0.0385
@<TRIPOS>BOND
     1    17    18    1
     2    18    16    1
     3    16    15    1
     4    15    12    1
     5    12    13    1
     6    12     5    1
     7     5     6    2
     8     5     7   am
     9     7     8    1
    10     8     9    2
    11     9    10    1
    12    10    11    1
    13    11     1    1
    14     1     2    2
    15     1     3   am
    16     3    19    1
    17    19    20    1
    18    20    21   ar
    19    21    22   ar
    20    22    23    1
    21    22    24   ar
    22    24    25   ar
    23    25    26   ar
    24    26    27    1
    25    27    28   ar
    26    28    29   ar
    27    29    30   ar
    28    30    31   ar
    29    11     7    1
    30    26    20   ar
    31    31    27   ar
    32    13    14    1
    33     3     4    1
@<TRIPOS>MOLECULE
*****
 31 33 0 0 0
SMALL
GASTEIGER

@<TRIPOS>ATOM
      1 C          61.9139   85.5990    9.5242 C.2     1  UNL1        0.2432
      2 O          63.0952   85.0746    8.7629 O.2     1  UNL1       -0.2732
      3 N          61.6925   85.1796   10.9473 N.am    1  UNL1       -0.2990
      4 H          60.9172   85.5237   11.4470 H       1  UNL1        0.1498
      5 C          61.5192   88.7559   10.2506 C.2     1  UNL1        0.2715
      6 O          62.5565   88.0632   11.0838 O.2     1  UNL1       -0.2705
      7 N          60.7725   87.9937    9.1963 N.am    1  UNL1       -0.1715
      8 N          59.7133   88.5488    8.2908 N.2     1  UNL1       -0.1784
      9 C          59.2401   87.4408    7.3973 C.2     1  UNL1        0.0938
     10 C          60.0069   86.2009    7.7506 C.3     1  UNL1        0.0799
     11 C          60.9539   86.5426    8.8624 C.3     1  UNL1        0.1808
     12 C          61.2285   90.2107   10.4719 C.3     1  UNL1        0.1885
     13 O          59.8790   90.7669   10.1261 O.3     1  UNL1       -0.3757
     14 H          59.3178   90.0583    9.7741 H       1  UNL1        0.2110
     15 C          62.2872   91.1093   11.0389 C.3     1  UNL1        0.0388
     16 C          63.5197   91.4134   10.2398 C.3     1  UNL1        0.0030
     17 C          64.9085   91.9626   12.3657 C.3     1  UNL1        0.0000
     18 C          64.6838   92.1012   10.8891 C.3     1  UNL1        0.0001
     19 C          62.6524   84.2359   11.6091 C.3     1  UNL1        0.1179
     20 C          63.1939   84.5505   12.9722 C.ar    1  UNL1        0.0161
     21 C          63.6729   85.9365   13.2874 C.ar    1  UNL1        0.0103
     22 C          64.2144   86.2511   14.6504 C.ar    1  UNL1        0.0575
     23 CL         64.6934   87.6371   14.9656 Cl      1  UNL1       -0.0823
     24 C          64.2768   85.1796   15.6982 C.ar    1  UNL1        0.0129
     25 C          63.7977   83.7935   15.3830 C.ar    1  UNL1        0.0199
     26 C          63.2563   83.4790   14.0200 C.ar    1  UNL1        0.0839
     27 N          62.7772   82.0929   13.7048 N.ar    1  UNL1       -0.1889
     28 C          61.5366   81.4449   14.2441 C.ar    1  UNL1        0.2258
     29 N          61.4473   80.0630   13.6676 N.ar    1  UNL1       -0.1045
     30 N          62.6328   79.8569   12.7719 N.ar    1  UNL1       -0.0222
     31 N          63.4547   81.1115   12.7949 N.ar    1  UNL1       -0.0385
@<TRIPOS>BOND
     1    17    18    1
     2    18    16    1
     3    16    15    1
     4    15    12    1
     5    12    13    1
     6    12     5    1
     7     5     6    2
     8     5     7   am
     9     7     8    1
    10     8     9    2
    11     9    10    1
    12    10    11    1
    13    11     1    1
    14     1     2    2
    15     1     3   am
    16     3    19    1
    17    19    20    1
    18    20    21   ar
    19    21    22   ar
    20    22    23    1
    21    22    24   ar
    22    24    25   ar
    23    25    26   ar
    24    26    27    1
    25    27    28   ar
    26    28    29   ar
    27    29    30   ar
    28    30    31   ar
    29    11     7    1
    30    26    20   ar
    31    31    27   ar
    32    13    14    1
    33     3     4    1
@<TRIPOS>MOLECULE
*****
 31 33 0 0 0
SMALL
GASTEIGER

@<TRIPOS>ATOM
      1 C          61.7389   88.9781   11.4950 C.2     1  UNL1        0.2432
      2 O          60.7941   89.3781   12.5891 O.2     1  UNL1       -0.2732
      3 N          62.8780   89.8796   11.1209 N.am    1  UNL1       -0.2990
      4 H          63.4982   89.6170   10.4027 H       1  UNL1        0.1498
      5 C          59.9861   88.5316    8.7788 C.2     1  UNL1        0.2715
      6 O          59.9983   89.9485    9.2710 O.2     1  UNL1       -0.2705
      7 N          60.7391   87.4714    9.5264 N.am    1  UNL1       -0.1715
      8 N          60.8186   86.0198    9.1568 N.2     1  UNL1       -0.1784
      9 C          61.6734   85.3280   10.1769 C.2     1  UNL1        0.0938
     10 C          62.1222   86.3519   11.1769 C.3     1  UNL1        0.0799
     11 C          61.5448   87.6766   10.7749 C.3     1  UNL1        0.1808
     12 C          59.2209   88.1750    7.5389 C.3     1  UNL1        0.1885
     13 O          58.9775   86.7351    7.1960 O.3     1  UNL1       -0.3757
     14 H          59.3781   86.1691    7.8742 H       1  UNL1        0.2110
     15 C          58.6991   89.2581    6.6420 C.3     1  UNL1        0.0388
     16 C          59.6561   90.1415    5.8977 C.3     1  UNL1        0.0030
     17 C          57.6613   91.5224    4.9683 C.3     1  UNL1        0.0000
     18 C          59.1351   91.2509    5.0330 C.3     1  UNL1        0.0001
     19 C          63.0722   91.1810   11.8409 C.3     1  UNL1        0.1179
     20 C          64.4573   91.6935   12.1035 C.ar    1  UNL1        0.0161
     21 C          65.1614   92.5170   11.0662 C.ar    1  UNL1        0.0103
     22 C          66.5465   93.0296   11.3287 C.ar    1  UNL1        0.0575
     23 CL         67.2506   93.8531   10.2914 Cl      1  UNL1       -0.0823
     24 C          67.2274   92.7186   12.6285 C.ar    1  UNL1        0.0129
     25 C          66.5233   91.8951   13.6658 C.ar    1  UNL1        0.0199
     26 C          65.1382   91.3825   13.4033 C.ar    1  UNL1        0.0839
     27 N          64.4341   90.5590   14.4406 N.ar    1  UNL1       -0.1889
     28 C          63.8940   91.0605   15.7471 C.ar    1  UNL1        0.2258
     29 N          63.2725   89.9008   16.4675 N.ar    1  UNL1       -0.1045
     30 N          63.4286   88.6826   15.6063 N.ar    1  UNL1       -0.0222
     31 N          64.1464   89.0894   14.3537 N.ar    1  UNL1       -0.0385
@<TRIPOS>BOND
     1    17    18    1
     2    18    16    1
     3    16    15    1
     4    15    12    1
     5    12    13    1
     6    12     5    1
     7     5     6    2
     8     5     7   am
     9     7     8    1
    10     8     9    2
    11     9    10    1
    12    10    11    1
    13    11     1    1
    14     1     2    2
    15     1     3   am
    16     3    19    1
    17    19    20    1
    18    20    21   ar
    19    21    22   ar
    20    22    23    1
    21    22    24   ar
    22    24    25   ar
    23    25    26   ar
    24    26    27    1
    25    27    28   ar
    26    28    29   ar
    27    29    30   ar
    28    30    31   ar
    29    11     7    1
    30    26    20   ar
    31    31    27   ar
    32    13    14    1
    33     3     4    1
@<TRIPOS>MOLECULE
*****
 31 33 0 0 0
SMALL
GASTEIGER

@<TRIPOS>ATOM
      1 C          63.7919   87.4150   15.0743 C.2     1  UNL1        0.2432
      2 O          62.9797   87.9674   16.2080 O.2     1  UNL1       -0.2732
      3 N          64.5201   88.3457   14.1503 N.am    1  UNL1       -0.2990
      4 H          65.0531   87.9832   13.4062 H       1  UNL1        0.1498
      5 C          62.9230   85.8078   12.3704 C.2     1  UNL1        0.2715
      6 O          62.7254   87.2924   12.2877 O.2     1  UNL1       -0.2705
      7 N          63.4766   85.1934   13.6218 N.am    1  UNL1       -0.1715
      8 N          63.7280   83.7323   13.8500 N.2     1  UNL1       -0.1784
      9 C          64.2828   83.5682   15.2340 C.2     1  UNL1        0.0938
     10 C          64.3742   84.9277   15.8610 C.3     1  UNL1        0.0799
     11 C          63.8760   85.9322   14.8647 C.3     1  UNL1        0.1808
     12 C          62.5670   84.9376   11.2016 C.3     1  UNL1        0.1885
     13 O          63.0463   83.5172   11.1507 O.3     1  UNL1       -0.3757
     14 H          63.5690   83.3236   11.9446 H       1  UNL1        0.2110
     15 C          61.7318   85.4878   10.0838 C.3     1  UNL1        0.0388
     16 C          62.3914   86.0165    8.8447 C.3     1  UNL1        0.0030
     17 C          61.9455   84.7329    6.6303 C.3     1  UNL1        0.0000
     18 C          62.8519   85.0685    7.7774 C.3     1  UNL1        0.0001
     19 C          64.4360   89.8285   14.3599 C.3     1  UNL1        0.1179
     20 C          64.5014   90.7572   13.1837 C.ar    1  UNL1        0.0161
     21 C          63.6222   90.5208   11.9917 C.ar    1  UNL1        0.0103
     22 C          63.6875   91.4495   10.8156 C.ar    1  UNL1        0.0575
     23 CL         62.8083   91.2131    9.6235 Cl      1  UNL1       -0.0823
     24 C          64.6322   92.6145   10.8315 C.ar    1  UNL1        0.0129
     25 C          65.5115   92.8509   12.0235 C.ar    1  UNL1        0.0199
     26 C          65.4461   91.9223   13.1997 C.ar    1  UNL1        0.0839
     27 N          66.3254   92.1587   14.3917 N.ar    1  UNL1       -0.1889
     28 C          67.7812   91.8129   14.4959 C.ar    1  UNL1        0.2258
     29 N          68.2588   92.2229   15.8574 N.ar    1  UNL1       -0.1045
     30 N          67.0981   92.8220   16.5948 N.ar    1  UNL1       -0.0222
     31 N          65.9031   92.7823   15.6890 N.ar    1  UNL1       -0.0385
@<TRIPOS>BOND
     1    17    18    1
     2    18    16    1
     3    16    15    1
     4    15    12    1
     5    12    13    1
     6    12     5    1
     7     5     6    2
     8     5     7   am
     9     7     8    1
    10     8     9    2
    11     9    10    1
    12    10    11    1
    13    11     1    1
    14     1     2    2
    15     1     3   am
    16     3    19    1
    17    19    20    1
    18    20    21   ar
    19    21    22   ar
    20    22    23    1
    21    22    24   ar
    22    24    25   ar
    23    25    26   ar
    24    26    27    1
    25    27    28   ar
    26    28    29   ar
    27    29    30   ar
    28    30    31   ar
    29    11     7    1
    30    26    20   ar
    31    31    27   ar
    32    13    14    1
    33     3     4    1
@<TRIPOS>MOLECULE
*****
 31 33 0 0 0
SMALL
GASTEIGER

@<TRIPOS>ATOM
      1 C          64.9514   91.0744   15.0341 C.2     1  UNL1        0.2432
      2 O          63.5705   91.3684   15.5407 O.2     1  UNL1       -0.2732
      3 N          65.2701   89.7229   14.4666 N.am    1  UNL1       -0.2990
      4 H          66.1764   89.5299   14.1340 H       1  UNL1        0.1498
      5 C          65.6272   93.2511   12.6985 C.2     1  UNL1        0.2715
      6 O          64.5076   92.3142   12.3538 O.2     1  UNL1       -0.2705
      7 N          66.3242   93.1323   14.0214 N.am    1  UNL1       -0.1715
      8 N          67.4542   93.9931   14.5029 N.2     1  UNL1       -0.1784
      9 C          67.8420   93.5246   15.8742 C.2     1  UNL1        0.0938
     10 C          66.9516   92.3742   16.2400 C.3     1  UNL1        0.0799
     11 C          66.0136   92.1317   15.0949 C.3     1  UNL1        0.1808
     12 C          66.0497   94.3067   11.7202 C.3     1  UNL1        0.1885
     13 O          66.0197   95.7528   12.1178 O.3     1  UNL1       -0.3757
     14 H          65.7052   95.8303   13.0321 H       1  UNL1        0.2110
     15 C          66.5023   93.9164   10.3444 C.3     1  UNL1        0.0388
     16 C          66.9124   92.5013   10.0632 C.3     1  UNL1        0.0030
     17 C          69.0297   92.1107    8.6089 C.3     1  UNL1        0.0000
     18 C          68.3665   92.1495    9.9538 C.3     1  UNL1        0.0001
     19 C          64.2079   88.6656   14.4057 C.3     1  UNL1        0.1179
     20 C          63.5182   88.3691   13.1070 C.ar    1  UNL1        0.0161
     21 C          63.1463   89.4902   12.1824 C.ar    1  UNL1        0.0103
     22 C          62.4567   89.1938   10.8838 C.ar    1  UNL1        0.0575
     23 CL         62.0847   90.3149    9.9592 Cl      1  UNL1       -0.0823
     24 C          62.1389   87.7764   10.5098 C.ar    1  UNL1        0.0129
     25 C          62.5108   86.6554   11.4344 C.ar    1  UNL1        0.0199
     26 C          63.2005   86.9517   12.7330 C.ar    1  UNL1        0.0839
     27 N          63.5724   85.8307   13.6576 N.ar    1  UNL1       -0.1889
     28 C          64.1600   84.5115   13.2521 C.ar    1  UNL1        0.2258
     29 N          64.3728   83.6974   14.4940 N.ar    1  UNL1       -0.1045
     30 N          63.9167   84.5136   15.6670 N.ar    1  UNL1       -0.0222
     31 N          63.4220   85.8320   15.1500 N.ar    1  UNL1       -0.0385
@<TRIPOS>BOND
     1    17    18    1
     2    18    16    1
     3    16    15    1
     4    15    12    1
     5    12    13    1
     6    12     5    1
     7     5     6    2
     8     5     7   am
     9     7     8    1
    10     8     9    2
    11     9    10    1
    12    10    11    1
    13    11     1    1
    14     1     2    2
    15     1     3   am
    16     3    19    1
    17    19    20    1
    18    20    21   ar
    19    21    22   ar
    20    22    23    1
    21    22    24   ar
    22    24    25   ar
    23    25    26   ar
    24    26    27    1
    25    27    28   ar
    26    28    29   ar
    27    29    30   ar
    28    30    31   ar
    29    11     7    1
    30    26    20   ar
    31    31    27   ar
    32    13    14    1
    33     3     4    1
