@<TRIPOS>MOLECULE
*****
 32 36 0 0 0
SMALL
GASTEIGER

@<TRIPOS>ATOM
      1 C          61.6596   88.3748   11.1389 C.2     1  UNL1        0.0450
      2 C          62.3412   87.1256   11.6132 C.2     1  UNL1        0.0577
      3 C          62.2782   85.8763   10.7856 C.2     1  UNL1        0.1962
      4 N          61.5335   85.8761    9.4834 N.2     1  UNL1       -0.0378
      5 C          60.8519   87.1252    9.0091 C.2     1  UNL1        0.3604
      6 N          60.0493   87.4249    7.7778 N.2     1  UNL1       -0.0343
      7 C          59.6163   88.8595    7.8446 C.2     1  UNL1        0.2321
      8 C          60.1513   89.4464    9.1171 C.2     1  UNL1        0.0421
      9 C          60.9150   88.3746    9.8368 C.3     1  UNL1        0.1734
     10 C          62.9598   84.6271   11.2600 C.ar    1  UNL1        0.0713
     11 C          62.9779   84.2915   12.7218 C.ar    1  UNL1        0.0173
     12 C          63.6595   83.0424   13.1962 C.ar    1  UNL1        0.0579
     13 CL         63.6775   82.7067   14.6581 Cl      1  UNL1       -0.0822
     14 C          64.3230   82.1288   12.2087 C.ar    1  UNL1        0.0137
     15 C          64.3050   82.4645   10.7469 C.ar    1  UNL1        0.0306
     16 C          63.6234   83.7136   10.2725 C.ar    1  UNL1        0.1437
     17 F          63.6053   84.0493    8.8106 F       1  UNL1       -0.2040
     18 N          61.7227   89.6241   11.9667 N.pl3   1  UNL1       -0.3148
     19 H          60.9268   89.9286   12.4597 H       1  UNL1        0.1520
     20 C          63.8652   90.3151   13.2636 C.ar    1  UNL1        0.0858
     21 C          65.1409   91.1005   13.3401 C.ar    1  UNL1        0.1046
     22 N          65.5497   91.9803   12.1961 N.ar    1  UNL1       -0.2421
     23 C          64.6828   92.0748   10.9756 C.ar    1  UNL1        0.1002
     24 C          63.4071   91.2893   10.8991 C.ar    1  UNL1        0.0354
     25 C          62.9984   90.4096   12.0432 C.ar    1  UNL1        0.0556
     26 O          62.3735   89.8796   15.3457 O.2     1  UNL1       -0.2700
     27 C          63.4564   89.4353   14.4077 C.2     1  UNL1        0.2485
     28 N          64.1305   88.1113   14.6137 N.am    1  UNL1       -0.3024
     29 H          64.8413   87.8197   13.9980 H       1  UNL1        0.1497
     30 C          63.7218   87.2315   15.7578 C.3     1  UNL1        0.0720
     31 C          63.0568   87.0596   17.0913 C.3     1  UNL1        0.0213
     32 C          63.6788   85.8793   16.4058 C.3     1  UNL1        0.0213
@<TRIPOS>BOND
     1    26    27    2
     2    27    28   am
     3    28    30    1
     4    30    31    1
     5    31    32    1
     6    27    20    1
     7    20    21   ar
     8    21    22   ar
     9    22    23   ar
    10    23    24   ar
    11    24    25   ar
    12    25    18    1
    13    18     1    1
    14     1     2    2
    15     2     3    1
    16     3    10    1
    17    10    11   ar
    18    11    12   ar
    19    12    13    1
    20    12    14   ar
    21    14    15   ar
    22    15    16   ar
    23    16    17    1
    24     3     4    2
    25     4     5    1
    26     5     6    2
    27     6     7    1
    28     7     8    2
    29     8     9    1
    30    32    30    1
    31    25    20   ar
    32     9     1    1
    33    16    10   ar
    34     9     5    1
    35    28    29    1
    36    18    19    1
@<TRIPOS>MOLECULE
*****
 32 36 0 0 0
SMALL
GASTEIGER

@<TRIPOS>ATOM
      1 C          61.6271   87.2667   11.0743 C.2     1  UNL1        0.0450
      2 C          62.5855   88.2471   11.6828 C.2     1  UNL1        0.0577
      3 C          62.7308   89.6186   11.0931 C.2     1  UNL1        0.1962
      4 N          61.9177   90.0098    9.8948 N.2     1  UNL1       -0.0378
      5 C          60.9593   89.0294    9.2863 C.2     1  UNL1        0.3604
      6 N          60.0315   89.1297    8.1119 N.2     1  UNL1       -0.0343
      7 C          59.3128   87.8201    7.9759 C.2     1  UNL1        0.2321
      8 C          59.7964   86.9105    9.0661 C.2     1  UNL1        0.0421
      9 C          60.8140   87.6578    9.8760 C.3     1  UNL1        0.1734
     10 C          63.6892   90.5990   11.7017 C.ar    1  UNL1        0.0713
     11 C          64.2346   91.7260   10.8757 C.ar    1  UNL1        0.0173
     12 C          65.1930   92.7064   11.4842 C.ar    1  UNL1        0.0579
     13 CL         65.7384   93.8335   10.6582 Cl      1  UNL1       -0.0822
     14 C          65.6060   92.5598   12.9188 C.ar    1  UNL1        0.0137
     15 C          65.0605   91.4328   13.7448 C.ar    1  UNL1        0.0306
     16 C          64.1022   90.4524   13.1363 C.ar    1  UNL1        0.1437
     17 F          63.5567   89.3253   13.9622 F       1  UNL1       -0.2040
     18 N          61.4818   85.8952   11.6641 N.pl3   1  UNL1       -0.3148
     19 H          60.6440   85.6385   12.1128 H       1  UNL1        0.1520
     20 C          63.3281   84.4730   12.8125 C.ar    1  UNL1        0.0858
     21 C          64.4594   83.4925   12.7185 C.ar    1  UNL1        0.1046
     22 N          64.8757   82.9537   11.3820 N.ar    1  UNL1       -0.2421
     23 C          64.1608   83.3953   10.1395 C.ar    1  UNL1        0.1002
     24 C          63.0294   84.3758   10.2335 C.ar    1  UNL1        0.0354
     25 C          62.6132   84.9146   11.5700 C.ar    1  UNL1        0.0556
     26 O          61.6610   84.5065   14.8049 O.2     1  UNL1       -0.2700
     27 C          62.9118   85.0119   14.1491 C.2     1  UNL1        0.2485
     28 N          63.7462   86.0561   14.8297 N.am    1  UNL1       -0.3024
     29 H          64.5671   86.3878   14.3992 H       1  UNL1        0.1497
     30 C          63.3299   86.5949   16.1663 C.3     1  UNL1        0.0720
     31 C          62.8599   86.3623   17.5716 C.3     1  UNL1        0.0213
     32 C          63.0789   87.7610   17.0759 C.3     1  UNL1        0.0213
@<TRIPOS>BOND
     1    26    27    2
     2    27    28   am
     3    28    30    1
     4    30    31    1
     5    31    32    1
     6    27    20    1
     7    20    21   ar
     8    21    22   ar
     9    22    23   ar
    10    23    24   ar
    11    24    25   ar
    12    25    18    1
    13    18     1    1
    14     1     2    2
    15     2     3    1
    16     3    10    1
    17    10    11   ar
    18    11    12   ar
    19    12    13    1
    20    12    14   ar
    21    14    15   ar
    22    15    16   ar
    23    16    17    1
    24     3     4    2
    25     4     5    1
    26     5     6    2
    27     6     7    1
    28     7     8    2
    29     8     9    1
    30    32    30    1
    31    25    20   ar
    32     9     1    1
    33    16    10   ar
    34     9     5    1
    35    28    29    1
    36    18    19    1
@<TRIPOS>MOLECULE
*****
 32 36 0 0 0
SMALL
GASTEIGER

@<TRIPOS>ATOM
      1 C          64.2486   88.6986   13.6293 C.2     1  UNL1        0.0450
      2 C          63.3201   88.2083   12.5581 C.2     1  UNL1        0.0577
      3 C          62.8044   89.1597   11.5195 C.2     1  UNL1        0.1962
      4 N          63.2171   90.6015   11.5520 N.2     1  UNL1       -0.0378
      5 C          64.1456   91.0917   12.6232 C.2     1  UNL1        0.3604
      6 N          64.7226   92.4466   12.9084 N.2     1  UNL1       -0.0343
      7 C          65.5950   92.3325   14.1232 C.2     1  UNL1        0.2321
      8 C          65.5572   90.9071   14.5889 C.2     1  UNL1        0.0421
      9 C          64.6613   90.1403   13.6619 C.3     1  UNL1        0.1734
     10 C          61.8758   88.6693   10.4482 C.ar    1  UNL1        0.0713
     11 C          62.1692   87.3845    9.7318 C.ar    1  UNL1        0.0173
     12 C          61.2407   86.8942    8.6606 C.ar    1  UNL1        0.0579
     13 CL         61.5340   85.6094    7.9442 Cl      1  UNL1       -0.0822
     14 C          60.0189   87.6887    8.3058 C.ar    1  UNL1        0.0137
     15 C          59.7256   88.9736    9.0221 C.ar    1  UNL1        0.0306
     16 C          60.6540   89.4639   10.0934 C.ar    1  UNL1        0.1437
     17 F          60.3608   90.7487   10.8098 F       1  UNL1       -0.2040
     18 N          64.7643   87.7471   14.6679 N.pl3   1  UNL1       -0.3148
     19 H          65.7296   87.5640   14.7318 H       1  UNL1        0.1520
     20 C          63.3992   85.6516   15.3715 C.ar    1  UNL1        0.0858
     21 C          62.4443   84.9790   16.3128 C.ar    1  UNL1        0.1046
     22 N          61.8997   85.7296   17.4917 N.ar    1  UNL1       -0.2421
     23 C          62.3099   87.1527   17.7295 C.ar    1  UNL1        0.1002
     24 C          63.2649   87.8253   16.7882 C.ar    1  UNL1        0.0354
     25 C          63.8094   87.0746   15.6092 C.ar    1  UNL1        0.0556
     26 O          65.3935   84.5181   14.1518 O.2     1  UNL1       -0.2700
     27 C          63.9438   84.9009   14.1925 C.2     1  UNL1        0.2485
     28 N          63.0387   84.5331   13.0544 N.am    1  UNL1       -0.3024
     29 H          62.0872   84.7843   13.0812 H       1  UNL1        0.1497
     30 C          63.5833   83.7824   11.8754 C.3     1  UNL1        0.0720
     31 C          64.3425   82.6159   11.3159 C.3     1  UNL1        0.0213
     32 C          63.7674   83.6488   10.3927 C.3     1  UNL1        0.0213
@<TRIPOS>BOND
     1    26    27    2
     2    27    28   am
     3    28    30    1
     4    30    31    1
     5    31    32    1
     6    27    20    1
     7    20    21   ar
     8    21    22   ar
     9    22    23   ar
    10    23    24   ar
    11    24    25   ar
    12    25    18    1
    13    18     1    1
    14     1     2    2
    15     2     3    1
    16     3    10    1
    17    10    11   ar
    18    11    12   ar
    19    12    13    1
    20    12    14   ar
    21    14    15   ar
    22    15    16   ar
    23    16    17    1
    24     3     4    2
    25     4     5    1
    26     5     6    2
    27     6     7    1
    28     7     8    2
    29     8     9    1
    30    32    30    1
    31    25    20   ar
    32     9     1    1
    33    16    10   ar
    34     9     5    1
    35    28    29    1
    36    18    19    1
@<TRIPOS>MOLECULE
*****
 32 36 0 0 0
SMALL
GASTEIGER

@<TRIPOS>ATOM
      1 C          62.4881   88.8928   11.1337 C.2     1  UNL1        0.0450
      2 C          63.0088   87.7385   11.9378 C.2     1  UNL1        0.0577
      3 C          62.4594   86.3608   11.7150 C.2     1  UNL1        0.1962
      4 N          61.3892   86.1371   10.6880 N.2     1  UNL1       -0.0378
      5 C          60.8685   87.2913    9.8838 C.2     1  UNL1        0.3604
      6 N          59.8252   87.3765    8.8095 N.2     1  UNL1       -0.0343
      7 C          59.7299   88.8070    8.3683 C.2     1  UNL1        0.2321
      8 C          60.7143   89.6059    9.1700 C.2     1  UNL1        0.0421
      9 C          61.4180   88.6691   10.1067 C.3     1  UNL1        0.1734
     10 C          62.9801   85.2065   12.5192 C.ar    1  UNL1        0.0713
     11 C          62.6434   83.8008   12.1185 C.ar    1  UNL1        0.0173
     12 C          63.1641   82.6465   12.9226 C.ar    1  UNL1        0.0579
     13 CL         62.8275   81.2408   12.5219 Cl      1  UNL1       -0.0822
     14 C          64.0214   82.8981   14.1275 C.ar    1  UNL1        0.0137
     15 C          64.3581   84.3038   14.5282 C.ar    1  UNL1        0.0306
     16 C          63.8374   85.4580   13.7241 C.ar    1  UNL1        0.1437
     17 F          64.1740   86.8638   14.1248 F       1  UNL1       -0.2040
     18 N          63.0376   90.2706   11.3566 N.pl3   1  UNL1       -0.3148
     19 H          63.0160   90.9329   10.6285 H       1  UNL1        0.1520
     20 C          64.7890   91.5763   12.7630 C.ar    1  UNL1        0.0858
     21 C          65.3714   91.9450   14.0952 C.ar    1  UNL1        0.1046
     22 N          64.7848   91.3768   15.3533 N.ar    1  UNL1       -0.2421
     23 C          63.6158   90.4398   15.2793 C.ar    1  UNL1        0.1002
     24 C          63.0333   90.0710   13.9470 C.ar    1  UNL1        0.0354
     25 C          63.6200   90.6393   12.6889 C.ar    1  UNL1        0.0556
     26 O          64.4852   92.4698   10.3423 O.2     1  UNL1       -0.2700
     27 C          65.3757   92.1446   11.5048 C.2     1  UNL1        0.2485
     28 N          66.8527   92.3876   11.4091 N.am    1  UNL1       -0.3024
     29 H          67.4371   92.1741   12.1720 H       1  UNL1        0.1497
     30 C          67.4393   92.9559   10.1509 C.3     1  UNL1        0.0720
     31 C          68.3272   92.8109    8.9506 C.3     1  UNL1        0.0213
     32 C          67.5676   94.0853    9.1721 C.3     1  UNL1        0.0213
@<TRIPOS>BOND
     1    26    27    2
     2    27    28   am
     3    28    30    1
     4    30    31    1
     5    31    32    1
     6    27    20    1
     7    20    21   ar
     8    21    22   ar
     9    22    23   ar
    10    23    24   ar
    11    24    25   ar
    12    25    18    1
    13    18     1    1
    14     1     2    2
    15     2     3    1
    16     3    10    1
    17    10    11   ar
    18    11    12   ar
    19    12    13    1
    20    12    14   ar
    21    14    15   ar
    22    15    16   ar
    23    16    17    1
    24     3     4    2
    25     4     5    1
    26     5     6    2
    27     6     7    1
    28     7     8    2
    29     8     9    1
    30    32    30    1
    31    25    20   ar
    32     9     1    1
    33    16    10   ar
    34     9     5    1
    35    28    29    1
    36    18    19    1
@<TRIPOS>MOLECULE
*****
 32 36 0 0 0
SMALL
GASTEIGER

@<TRIPOS>ATOM
      1 C          64.1008   88.4490   13.4817 C.2     1  UNL1        0.0450
      2 C          63.1994   87.8897   12.4212 C.2     1  UNL1        0.0577
      3 C          62.6255   88.7942   11.3712 C.2     1  UNL1        0.1962
      4 N          62.9530   90.2580   11.3817 N.2     1  UNL1       -0.0378
      5 C          63.8544   90.8172   12.4422 C.2     1  UNL1        0.3604
      6 N          64.3519   92.2076   12.7058 N.2     1  UNL1       -0.0343
      7 C          65.2332   92.1623   13.9187 C.2     1  UNL1        0.2321
      8 C          65.2804   90.7441   14.4048 C.2     1  UNL1        0.0421
      9 C          64.4283   89.9127   13.4922 C.3     1  UNL1        0.1734
     10 C          61.7241   88.2349   10.3106 C.ar    1  UNL1        0.0713
     11 C          60.9971   89.1598    9.3800 C.ar    1  UNL1        0.0173
     12 C          60.0957   88.6006    8.3195 C.ar    1  UNL1        0.0579
     13 CL         59.3687   89.5255    7.3889 Cl      1  UNL1       -0.0822
     14 C          59.9213   87.1164    8.1896 C.ar    1  UNL1        0.0137
     15 C          60.6483   86.1915    9.1202 C.ar    1  UNL1        0.0306
     16 C          61.5497   86.7507   10.1807 C.ar    1  UNL1        0.1437
     17 F          62.2768   85.8259   11.1114 F       1  UNL1       -0.2040
     18 N          64.6746   87.5444   14.5317 N.pl3   1  UNL1       -0.3148
     19 H          65.6326   87.3179   14.5163 H       1  UNL1        0.1520
     20 C          63.3740   85.5443   15.5603 C.ar    1  UNL1        0.0858
     21 C          62.4883   84.9849   16.6338 C.ar    1  UNL1        0.1046
     22 N          62.0175   85.8663   17.7525 N.ar    1  UNL1       -0.2421
     23 C          62.4324   87.3071   17.7977 C.ar    1  UNL1        0.1002
     24 C          63.3181   87.8665   16.7240 C.ar    1  UNL1        0.0354
     25 C          63.7889   86.9850   15.6054 C.ar    1  UNL1        0.0556
     26 O          65.3133   84.4966   14.1850 O.2     1  UNL1       -0.2700
     27 C          63.8448   84.6629   14.4415 C.2     1  UNL1        0.2485
     28 N          62.8472   83.9478   13.5795 N.am    1  UNL1       -0.3024
     29 H          61.8834   84.0569   13.7479 H       1  UNL1        0.1497
     30 C          63.3180   83.0663   12.4608 C.3     1  UNL1        0.0720
     31 C          64.3054   82.7636   11.3729 C.3     1  UNL1        0.0213
     32 C          63.1459   81.8422   11.6110 C.3     1  UNL1        0.0213
@<TRIPOS>BOND
     1    26    27    2
     2    27    28   am
     3    28    30    1
     4    30    31    1
     5    31    32    1
     6    27    20    1
     7    20    21   ar
     8    21    22   ar
     9    22    23   ar
    10    23    24   ar
    11    24    25   ar
    12    25    18    1
    13    18     1    1
    14     1     2    2
    15     2     3    1
    16     3    10    1
    17    10    11   ar
    18    11    12   ar
    19    12    13    1
    20    12    14   ar
    21    14    15   ar
    22    15    16   ar
    23    16    17    1
    24     3     4    2
    25     4     5    1
    26     5     6    2
    27     6     7    1
    28     7     8    2
    29     8     9    1
    30    32    30    1
    31    25    20   ar
    32     9     1    1
    33    16    10   ar
    34     9     5    1
    35    28    29    1
    36    18    19    1
@<TRIPOS>MOLECULE
*****
 32 36 0 0 0
SMALL
GASTEIGER

@<TRIPOS>ATOM
      1 C          63.9613   87.1316   14.8264 C.2     1  UNL1        0.0450
      2 C          63.9199   85.9797   13.8665 C.2     1  UNL1        0.0577
      3 C          63.2641   84.6920   14.2682 C.2     1  UNL1        0.1962
      4 N          62.6496   84.5560   15.6299 N.2     1  UNL1       -0.0378
      5 C          62.6910   85.7079   16.5897 C.2     1  UNL1        0.3604
      6 N          62.1737   85.8678   17.9886 N.2     1  UNL1       -0.0343
      7 C          62.5099   87.2545   18.4514 C.2     1  UNL1        0.2321
      8 C          63.2349   87.9516   17.3386 C.2     1  UNL1        0.0421
      9 C          63.3469   86.9957   16.1880 C.3     1  UNL1        0.1734
     10 C          63.2227   83.5400   13.3083 C.ar    1  UNL1        0.0713
     11 C          63.9182   83.6425   11.9832 C.ar    1  UNL1        0.0173
     12 C          63.8768   82.4906   11.0233 C.ar    1  UNL1        0.0579
     13 CL         64.5723   82.5931    9.6983 Cl      1  UNL1       -0.0822
     14 C          63.1399   81.2362   11.3885 C.ar    1  UNL1        0.0137
     15 C          62.4443   81.1337   12.7136 C.ar    1  UNL1        0.0306
     16 C          62.4857   82.2856   13.6734 C.ar    1  UNL1        0.1437
     17 F          61.7902   82.1831   14.9985 F       1  UNL1       -0.2040
     18 N          64.6172   88.4194   14.4246 N.pl3   1  UNL1       -0.3148
     19 H          65.4382   88.7166   14.8795 H       1  UNL1        0.1520
     20 C          64.3104   90.7252   13.2673 C.ar    1  UNL1        0.0858
     21 C          63.7153   91.5603   12.1726 C.ar    1  UNL1        0.1046
     22 N          62.8320   90.9247   11.1403 N.ar    1  UNL1       -0.2421
     23 C          62.5436   89.4540   11.2028 C.ar    1  UNL1        0.1002
     24 C          63.1387   88.6189   12.2976 C.ar    1  UNL1        0.0354
     25 C          64.0221   89.2546   13.3298 C.ar    1  UNL1        0.0556
     26 O          64.6558   91.6552   15.6685 O.2     1  UNL1       -0.2700
     27 C          65.1938   91.3609   14.2997 C.2     1  UNL1        0.2485
     28 N          66.6151   91.7022   13.9631 N.am    1  UNL1       -0.3024
     29 H          66.9682   91.5090   13.0646 H       1  UNL1        0.1497
     30 C          67.4985   92.3379   14.9954 C.3     1  UNL1        0.0720
     31 C          68.0337   93.5671   15.6682 C.3     1  UNL1        0.0213
     32 C          68.4934   92.2095   16.1106 C.3     1  UNL1        0.0213
@<TRIPOS>BOND
     1    26    27    2
     2    27    28   am
     3    28    30    1
     4    30    31    1
     5    31    32    1
     6    27    20    1
     7    20    21   ar
     8    21    22   ar
     9    22    23   ar
    10    23    24   ar
    11    24    25   ar
    12    25    18    1
    13    18     1    1
    14     1     2    2
    15     2     3    1
    16     3    10    1
    17    10    11   ar
    18    11    12   ar
    19    12    13    1
    20    12    14   ar
    21    14    15   ar
    22    15    16   ar
    23    16    17    1
    24     3     4    2
    25     4     5    1
    26     5     6    2
    27     6     7    1
    28     7     8    2
    29     8     9    1
    30    32    30    1
    31    25    20   ar
    32     9     1    1
    33    16    10   ar
    34     9     5    1
    35    28    29    1
    36    18    19    1
@<TRIPOS>MOLECULE
*****
 32 36 0 0 0
SMALL
GASTEIGER

@<TRIPOS>ATOM
      1 C          62.5557   89.4051   11.4602 C.2     1  UNL1        0.0450
      2 C          63.0696   87.9996   11.3594 C.2     1  UNL1        0.0577
      3 C          62.1068   86.8505   11.3122 C.2     1  UNL1        0.1962
      4 N          60.6298   87.1068   11.3659 N.2     1  UNL1       -0.0378
      5 C          60.1158   88.5124   11.4667 C.2     1  UNL1        0.3604
      6 N          58.7250   89.0698   11.5369 N.2     1  UNL1       -0.0343
      7 C          58.8284   90.5635   11.6275 C.2     1  UNL1        0.2321
      8 C          60.2831   90.9292   11.6132 C.2     1  UNL1        0.0421
      9 C          61.0787   89.6615   11.5138 C.3     1  UNL1        0.1734
     10 C          62.6208   85.4448   11.2114 C.ar    1  UNL1        0.0713
     11 C          62.6254   84.5593   12.4221 C.ar    1  UNL1        0.0173
     12 C          63.1394   83.1537   12.3214 C.ar    1  UNL1        0.0579
     13 CL         63.1439   82.2682   13.5321 Cl      1  UNL1       -0.0822
     14 C          63.6488   82.6337   11.0099 C.ar    1  UNL1        0.0137
     15 C          63.6443   83.5192    9.7992 C.ar    1  UNL1        0.0306
     16 C          63.1303   84.9248    9.8999 C.ar    1  UNL1        0.1437
     17 F          63.1257   85.8104    8.6893 F       1  UNL1       -0.2040
     18 N          63.5186   90.5543   11.5073 N.pl3   1  UNL1       -0.3148
     19 H          63.7751   91.0160   10.6765 H       1  UNL1        0.1520
     20 C          65.2576   91.9420   12.8490 C.ar    1  UNL1        0.0858
     21 C          65.8297   92.3877   14.1620 C.ar    1  UNL1        0.1046
     22 N          65.2350   91.8913   15.4464 N.ar    1  UNL1       -0.2421
     23 C          64.0681   90.9492   15.4179 C.ar    1  UNL1        0.1002
     24 C          63.4960   90.5035   14.1048 C.ar    1  UNL1        0.0354
     25 C          64.0908   91.0000   12.8204 C.ar    1  UNL1        0.0556
     26 O          64.9829   93.1190   10.5491 O.2     1  UNL1       -0.2700
     27 C          65.8524   92.4385   11.5645 C.2     1  UNL1        0.2485
     28 N          67.3165   92.2546   11.2955 N.am    1  UNL1       -0.3024
     29 H          67.8871   91.8080   11.9619 H       1  UNL1        0.1497
     30 C          67.9113   92.7511   10.0110 C.3     1  UNL1        0.0720
     31 C          68.7687   92.5209    8.8020 C.3     1  UNL1        0.0213
     32 C          68.0839   93.8414    8.9954 C.3     1  UNL1        0.0213
@<TRIPOS>BOND
     1    26    27    2
     2    27    28   am
     3    28    30    1
     4    30    31    1
     5    31    32    1
     6    27    20    1
     7    20    21   ar
     8    21    22   ar
     9    22    23   ar
    10    23    24   ar
    11    24    25   ar
    12    25    18    1
    13    18     1    1
    14     1     2    2
    15     2     3    1
    16     3    10    1
    17    10    11   ar
    18    11    12   ar
    19    12    13    1
    20    12    14   ar
    21    14    15   ar
    22    15    16   ar
    23    16    17    1
    24     3     4    2
    25     4     5    1
    26     5     6    2
    27     6     7    1
    28     7     8    2
    29     8     9    1
    30    32    30    1
    31    25    20   ar
    32     9     1    1
    33    16    10   ar
    34     9     5    1
    35    28    29    1
    36    18    19    1
@<TRIPOS>MOLECULE
*****
 32 36 0 0 0
SMALL
GASTEIGER

@<TRIPOS>ATOM
      1 C          63.5042   88.4720   12.8992 C.2     1  UNL1        0.0450
      2 C          62.7371   88.2482   11.6298 C.2     1  UNL1        0.0577
      3 C          62.3197   86.8612   11.2403 C.2     1  UNL1        0.1962
      4 N          62.6693   85.6978   12.1203 N.2     1  UNL1       -0.0378
      5 C          63.4364   85.9215   13.3897 C.2     1  UNL1        0.3604
      6 N          63.9206   84.9769   14.4496 N.2     1  UNL1       -0.0343
      7 C          64.6373   85.7802   15.4941 C.2     1  UNL1        0.2321
      8 C          64.5961   87.2213   15.0798 C.2     1  UNL1        0.0421
      9 C          63.8539   87.3086   13.7792 C.3     1  UNL1        0.1734
     10 C          61.5525   86.6374    9.9708 C.ar    1  UNL1        0.0713
     11 C          62.1448   85.8034    8.8737 C.ar    1  UNL1        0.0173
     12 C          61.3777   85.5797    7.6043 C.ar    1  UNL1        0.0579
     13 CL         61.9699   84.7456    6.5072 Cl      1  UNL1       -0.0822
     14 C          60.0183   86.1899    7.4320 C.ar    1  UNL1        0.0137
     15 C          59.4261   87.0240    8.5291 C.ar    1  UNL1        0.0306
     16 C          60.1932   87.2477    9.7985 C.ar    1  UNL1        0.1437
     17 F          59.6010   88.0818   10.8957 F       1  UNL1       -0.2040
     18 N          63.9217   89.8591   13.2887 N.pl3   1  UNL1       -0.3148
     19 H          64.0599   90.0834   14.2372 H       1  UNL1        0.1520
     20 C          65.1190   92.0086   12.4545 C.ar    1  UNL1        0.0858
     21 C          65.3258   93.0538   11.3987 C.ar    1  UNL1        0.1046
     22 N          64.5420   92.9948   10.1212 N.ar    1  UNL1       -0.2421
     23 C          63.5513   91.8905    9.8995 C.ar    1  UNL1        0.1002
     24 C          63.3446   90.8452   10.9553 C.ar    1  UNL1        0.0354
     25 C          64.1285   90.9044   12.2328 C.ar    1  UNL1        0.0556
     26 O          65.3118   91.5274   15.0004 O.2     1  UNL1       -0.2700
     27 C          65.9030   92.0677   13.7321 C.2     1  UNL1        0.2485
     28 N          67.2779   92.6671   13.7413 N.am    1  UNL1       -0.3024
     29 H          67.6659   93.0217   12.9089 H       1  UNL1        0.1497
     30 C          68.0618   92.7262   15.0189 C.3     1  UNL1        0.0720
     31 C          68.9732   93.4686   15.9506 C.3     1  UNL1        0.0213
     32 C          68.5081   92.0860   16.2999 C.3     1  UNL1        0.0213
@<TRIPOS>BOND
     1    26    27    2
     2    27    28   am
     3    28    30    1
     4    30    31    1
     5    31    32    1
     6    27    20    1
     7    20    21   ar
     8    21    22   ar
     9    22    23   ar
    10    23    24   ar
    11    24    25   ar
    12    25    18    1
    13    18     1    1
    14     1     2    2
    15     2     3    1
    16     3    10    1
    17    10    11   ar
    18    11    12   ar
    19    12    13    1
    20    12    14   ar
    21    14    15   ar
    22    15    16   ar
    23    16    17    1
    24     3     4    2
    25     4     5    1
    26     5     6    2
    27     6     7    1
    28     7     8    2
    29     8     9    1
    30    32    30    1
    31    25    20   ar
    32     9     1    1
    33    16    10   ar
    34     9     5    1
    35    28    29    1
    36    18    19    1
@<TRIPOS>MOLECULE
*****
 32 36 0 0 0
SMALL
GASTEIGER

@<TRIPOS>ATOM
      1 C          63.1489   88.9250   12.1278 C.2     1  UNL1        0.0450
      2 C          63.5317   87.5838   12.6797 C.2     1  UNL1        0.0577
      3 C          62.7020   86.3761   12.3588 C.2     1  UNL1        0.1962
      4 N          61.4894   86.5095   11.4859 N.2     1  UNL1       -0.0378
      5 C          61.1066   87.8507   10.9340 C.2     1  UNL1        0.3604
      6 N          59.9742   88.2872   10.0525 N.2     1  UNL1       -0.0343
      7 C          60.1041   89.7647    9.8286 C.2     1  UNL1        0.2321
      8 C          61.3167   90.2414   10.5717 C.2     1  UNL1        0.0421
      9 C          61.9363   89.0584   11.2549 C.3     1  UNL1        0.1734
     10 C          63.0849   85.0349   12.9108 C.ar    1  UNL1        0.0713
     11 C          62.7850   83.7893   12.1305 C.ar    1  UNL1        0.0173
     12 C          63.1678   82.4482   12.6825 C.ar    1  UNL1        0.0579
     13 CL         62.8679   81.2027   11.9022 Cl      1  UNL1       -0.0822
     14 C          63.8506   82.3525   14.0146 C.ar    1  UNL1        0.0137
     15 C          64.1505   83.5980   14.7949 C.ar    1  UNL1        0.0306
     16 C          63.7677   84.9392   14.2430 C.ar    1  UNL1        0.1437
     17 F          64.0675   86.1848   15.0232 F       1  UNL1       -0.2040
     18 N          63.9786   90.1327   12.4487 N.pl3   1  UNL1       -0.3148
     19 H          64.4409   90.6181   11.7276 H       1  UNL1        0.1520
     20 C          65.0964   91.6688   14.2210 C.ar    1  UNL1        0.0858
     21 C          65.2217   92.1370   15.6405 C.ar    1  UNL1        0.1046
     22 N          64.3546   91.5372   16.7074 N.ar    1  UNL1       -0.2421
     23 C          63.3621   90.4691   16.3548 C.ar    1  UNL1        0.1002
     24 C          63.2368   90.0010   14.9351 C.ar    1  UNL1        0.0354
     25 C          64.1040   90.6009   13.8683 C.ar    1  UNL1        0.0556
     26 O          67.4167   91.9048   13.0762 O.2     1  UNL1       -0.2700
     27 C          65.9636   92.2687   13.1541 C.2     1  UNL1        0.2485
     28 N          65.3777   93.2323   12.1652 N.am    1  UNL1       -0.3024
     29 H          64.4240   93.4711   12.2163 H       1  UNL1        0.1497
     30 C          66.2449   93.8322   11.0983 C.3     1  UNL1        0.0720
     31 C          66.8445   95.0377   10.4370 C.3     1  UNL1        0.0213
     32 C          67.1473   93.6657    9.9117 C.3     1  UNL1        0.0213
@<TRIPOS>BOND
     1    26    27    2
     2    27    28   am
     3    28    30    1
     4    30    31    1
     5    31    32    1
     6    27    20    1
     7    20    21   ar
     8    21    22   ar
     9    22    23   ar
    10    23    24   ar
    11    24    25   ar
    12    25    18    1
    13    18     1    1
    14     1     2    2
    15     2     3    1
    16     3    10    1
    17    10    11   ar
    18    11    12   ar
    19    12    13    1
    20    12    14   ar
    21    14    15   ar
    22    15    16   ar
    23    16    17    1
    24     3     4    2
    25     4     5    1
    26     5     6    2
    27     6     7    1
    28     7     8    2
    29     8     9    1
    30    32    30    1
    31    25    20   ar
    32     9     1    1
    33    16    10   ar
    34     9     5    1
    35    28    29    1
    36    18    19    1
