@<TRIPOS>MOLECULE
*****
 34 38 0 0 0
SMALL
GASTEIGER

@<TRIPOS>ATOM
      1 C          64.1950   83.0663   14.4748 C.3     1  UNL1        0.2159
      2 N          63.7428   84.2902   13.7347 N.am    1  UNL1       -0.1449
      3 C          64.1701   85.6499   14.2020 C.2     1  UNL1        0.3728
      4 N          65.0497   85.7859   15.4095 N.2     1  UNL1       -0.1329
      5 N          63.7180   86.8738   13.4618 N.pl3   1  UNL1       -0.2247
      6 C          62.8385   86.7378   12.2544 C.3     1  UNL1        0.1559
      7 C          62.2393   87.7553   11.3294 C.3     1  UNL1        0.1314
      8 N          61.4417   87.0244   10.2904 N.pl3   1  UNL1       -0.2892
      9 C          61.5479   85.5551   10.5732 C.3     1  UNL1        0.1064
     10 C          62.4111   85.3780   11.7871 C.3     1  UNL1        0.1497
     11 C          62.8633   84.1542   12.5272 C.2     1  UNL1        0.2919
     12 O          62.4360   82.7944   12.0600 O.2     1  UNL1       -0.2563
     13 H          65.3464   84.9827   15.8953 H       1  UNL1        0.3058
     14 H          63.9984   87.7663   13.7685 H       1  UNL1        0.2454
     15 C          60.6728   87.6524    9.1659 C.ar    1  UNL1        0.1320
     16 C          59.8758   86.7927    8.2302 C.ar    1  UNL1        0.0366
     17 C          59.1069   87.4208    7.1057 C.ar    1  UNL1        0.0341
     18 C          59.1351   88.9086    6.9169 C.ar    1  UNL1        0.1593
     19 F          58.3663   89.5367    5.7925 F       1  UNL1       -0.2025
     20 C          59.9322   89.7684    7.8526 C.ar    1  UNL1        0.1298
     21 N          60.7010   89.1402    8.9771 N.ar    1  UNL1       -0.2268
     22 C          63.1831   88.1558   12.6016 C.ar    1  UNL1        0.0397
     23 C          64.0934   88.5959   13.7096 C.ar    1  UNL1        0.0057
     24 C          64.1508   90.0947   13.6945 C.ar    1  UNL1        0.0068
     25 C          63.2760   90.5810   12.5772 C.ar    1  UNL1        0.0352
     26 S          62.6779   89.3826   11.9018 S.2     1  UNL1       -0.0878
     27 C          64.9438   90.9561   14.6321 C.ar    1  UNL1        0.0012
     28 C          64.3201   91.4542   15.9021 C.ar    1  UNL1        0.0001
     29 C          65.1131   92.3156   16.8397 C.ar    1  UNL1        0.0007
     30 C          66.5299   92.6790   16.5073 C.ar    1  UNL1        0.0103
     31 C          67.1537   92.1809   15.2374 C.ar    1  UNL1        0.0684
     32 C          66.3607   91.3195   14.2998 C.ar    1  UNL1        0.0103
     33 C          68.5706   92.5443   14.9050 C.1     1  UNL1        0.1004
     34 N          69.9875   92.9076   14.5725 N.1     1  UNL1       -0.1908
@<TRIPOS>BOND
     1     1     2    1
     2     2     3    1
     3     3     4    2
     4     3     5    1
     5     5     6    1
     6     6    22    1
     7    22    23   ar
     8    23    24   ar
     9    24    27    1
    10    27    28   ar
    11    28    29   ar
    12    29    30   ar
    13    30    31   ar
    14    31    33    1
    15    33    34    3
    16    31    32   ar
    17    24    25   ar
    18    25    26   ar
    19     6     7    1
    20     7     8    1
    21     8    15    1
    22    15    16   ar
    23    16    17   ar
    24    17    18   ar
    25    18    19    1
    26    18    20   ar
    27    20    21   ar
    28     8     9    1
    29    10     9    1
    30    10    11    1
    31    11    12    2
    32    11     2   am
    33    10     6    1
    34    26    22   ar
    35    21    15   ar
    36    32    27   ar
    37     4    13    1
    38     5    14    1
@<TRIPOS>MOLECULE
*****
 34 38 0 0 0
SMALL
GASTEIGER

@<TRIPOS>ATOM
      1 C          59.7609   89.4924    8.0047 C.3     1  UNL1        0.2159
      2 N          60.5576   88.7988    9.0698 N.am    1  UNL1       -0.1449
      3 C          61.3692   89.6023   10.0422 C.2     1  UNL1        0.3728
      4 N          61.3841   91.0995    9.9496 N.2     1  UNL1       -0.1329
      5 N          62.1660   88.9088   11.1072 N.pl3   1  UNL1       -0.2247
      6 C          62.1511   87.4117   11.1998 C.3     1  UNL1        0.1559
      7 C          62.8312   86.4572   12.1359 C.3     1  UNL1        0.1314
      8 N          62.4399   85.0638   11.7420 N.pl3   1  UNL1       -0.2892
      9 C          61.5180   85.1571   10.5624 C.3     1  UNL1        0.1064
     10 C          61.3395   86.6082   10.2273 C.3     1  UNL1        0.1497
     11 C          60.5427   87.3018    9.1623 C.2     1  UNL1        0.2919
     12 O          59.7311   86.4983    8.1898 O.2     1  UNL1       -0.2563
     13 H          60.8611   91.5547    9.2506 H       1  UNL1        0.3058
     14 H          62.6986   89.4362   11.7455 H       1  UNL1        0.2454
     15 C          62.8913   83.7990   12.4103 C.ar    1  UNL1        0.1320
     16 C          62.7716   82.4874   11.6923 C.ar    1  UNL1        0.0366
     17 C          63.2230   81.2227   12.3607 C.ar    1  UNL1        0.0341
     18 C          63.7941   81.2695   13.7470 C.ar    1  UNL1        0.1593
     19 F          64.2455   80.0047   14.4153 F       1  UNL1       -0.2025
     20 C          63.9138   82.5811   14.4649 C.ar    1  UNL1        0.1298
     21 N          63.4624   83.8458   13.7965 N.ar    1  UNL1       -0.2268
     22 C          63.0054   88.0787   12.2367 C.ar    1  UNL1        0.0397
     23 C          63.5351   89.4806   12.1740 C.ar    1  UNL1        0.0057
     24 C          64.3371   89.7292   13.4170 C.ar    1  UNL1        0.0068
     25 C          64.3031   88.4808   14.2480 C.ar    1  UNL1        0.0352
     26 S          63.4800   87.4608   13.5185 S.2     1  UNL1       -0.0878
     27 C          65.0483   91.0025   13.7675 C.ar    1  UNL1        0.0012
     28 C          65.4326   91.2796   15.1907 C.ar    1  UNL1        0.0001
     29 C          66.1438   92.5529   15.5412 C.ar    1  UNL1        0.0007
     30 C          66.4707   93.5492   14.4686 C.ar    1  UNL1        0.0103
     31 C          66.0864   93.2720   13.0454 C.ar    1  UNL1        0.0684
     32 C          65.3752   91.9987   12.6949 C.ar    1  UNL1        0.0103
     33 C          66.4133   94.2682   11.9726 C.1     1  UNL1        0.1004
     34 N          66.7403   95.2643   10.8998 N.1     1  UNL1       -0.1908
@<TRIPOS>BOND
     1     1     2    1
     2     2     3    1
     3     3     4    2
     4     3     5    1
     5     5     6    1
     6     6    22    1
     7    22    23   ar
     8    23    24   ar
     9    24    27    1
    10    27    28   ar
    11    28    29   ar
    12    29    30   ar
    13    30    31   ar
    14    31    33    1
    15    33    34    3
    16    31    32   ar
    17    24    25   ar
    18    25    26   ar
    19     6     7    1
    20     7     8    1
    21     8    15    1
    22    15    16   ar
    23    16    17   ar
    24    17    18   ar
    25    18    19    1
    26    18    20   ar
    27    20    21   ar
    28     8     9    1
    29    10     9    1
    30    10    11    1
    31    11    12    2
    32    11     2   am
    33    10     6    1
    34    26    22   ar
    35    21    15   ar
    36    32    27   ar
    37     4    13    1
    38     5    14    1
@<TRIPOS>MOLECULE
*****
 34 38 0 0 0
SMALL
GASTEIGER

@<TRIPOS>ATOM
      1 C          58.9881   88.0458    6.3876 C.3     1  UNL1        0.2159
      2 N          59.8038   87.9668    7.6440 N.am    1  UNL1       -0.1449
      3 C          60.2447   89.2244    8.3323 C.2     1  UNL1        0.3728
      4 N          59.8699   90.5613    7.7642 N.2     1  UNL1       -0.1329
      5 N          61.0604   89.1455    9.5887 N.pl3   1  UNL1       -0.2247
      6 C          61.4351   87.8087   10.1568 C.3     1  UNL1        0.1559
      7 C          62.2249   87.4200   11.3712 C.3     1  UNL1        0.1314
      8 N          62.2722   85.9221   11.4335 N.pl3   1  UNL1       -0.2892
      9 C          61.5115   85.3850   10.2575 C.3     1  UNL1        0.1064
     10 C          60.9941   86.5510    9.4684 C.3     1  UNL1        0.1497
     11 C          60.1785   86.6301    8.2121 C.2     1  UNL1        0.2919
     12 O          59.7375   85.3724    7.5238 O.2     1  UNL1       -0.2563
     13 H          59.3346   90.6132    6.9396 H       1  UNL1        0.3058
     14 H          61.3498   89.9709   10.0405 H       1  UNL1        0.2454
     15 C          62.9594   85.1046   12.4868 C.ar    1  UNL1        0.1320
     16 C          63.0510   83.6148   12.3390 C.ar    1  UNL1        0.0366
     17 C          63.7383   82.7974   13.3924 C.ar    1  UNL1        0.0341
     18 C          64.3340   83.4698   14.5936 C.ar    1  UNL1        0.1593
     19 F          65.0212   82.6524   15.6469 F       1  UNL1       -0.2025
     20 C          64.2424   84.9597   14.7415 C.ar    1  UNL1        0.1298
     21 N          63.5551   85.7771   13.6881 N.ar    1  UNL1       -0.2268
     22 C          61.9454   88.9741   10.9513 C.ar    1  UNL1        0.0397
     23 C          63.1966   89.7523   10.6708 C.ar    1  UNL1        0.0057
     24 C          63.3186   90.8251   11.7121 C.ar    1  UNL1        0.0068
     25 C          62.1428   90.7099   12.6363 C.ar    1  UNL1        0.0352
     26 S          61.2941   89.5659   12.1661 S.2     1  UNL1       -0.0878
     27 C          64.4226   91.8357   11.8117 C.ar    1  UNL1        0.0012
     28 C          64.8003   92.6545   10.6131 C.ar    1  UNL1        0.0001
     29 C          65.9043   93.6651   10.7128 C.ar    1  UNL1        0.0007
     30 C          66.6306   93.8568   12.0111 C.ar    1  UNL1        0.0103
     31 C          66.2529   93.0380   13.2098 C.ar    1  UNL1        0.0684
     32 C          65.1489   92.0274   13.1101 C.ar    1  UNL1        0.0103
     33 C          66.9792   93.2296   14.5082 C.1     1  UNL1        0.1004
     34 N          67.7054   93.4213   15.8066 N.1     1  UNL1       -0.1908
@<TRIPOS>BOND
     1     1     2    1
     2     2     3    1
     3     3     4    2
     4     3     5    1
     5     5     6    1
     6     6    22    1
     7    22    23   ar
     8    23    24   ar
     9    24    27    1
    10    27    28   ar
    11    28    29   ar
    12    29    30   ar
    13    30    31   ar
    14    31    33    1
    15    33    34    3
    16    31    32   ar
    17    24    25   ar
    18    25    26   ar
    19     6     7    1
    20     7     8    1
    21     8    15    1
    22    15    16   ar
    23    16    17   ar
    24    17    18   ar
    25    18    19    1
    26    18    20   ar
    27    20    21   ar
    28     8     9    1
    29    10     9    1
    30    10    11    1
    31    11    12    2
    32    11     2   am
    33    10     6    1
    34    26    22   ar
    35    21    15   ar
    36    32    27   ar
    37     4    13    1
    38     5    14    1
@<TRIPOS>MOLECULE
*****
 34 38 0 0 0
SMALL
GASTEIGER

@<TRIPOS>ATOM
      1 C          59.5116   88.2122    7.6650 C.3     1  UNL1        0.2159
      2 N          60.3963   88.1946    8.8763 N.am    1  UNL1       -0.1449
      3 C          60.7934   86.8877    9.4961 C.2     1  UNL1        0.3728
      4 N          60.3058   85.5983    8.9047 N.2     1  UNL1       -0.1329
      5 N          61.6781   86.8701   10.7074 N.pl3   1  UNL1       -0.2247
      6 C          62.1656   88.1595   11.2988 C.3     1  UNL1        0.1559
      7 C          63.0418   88.4539   12.4801 C.3     1  UNL1        0.1314
      8 N          63.1862   89.9429   12.5904 N.pl3   1  UNL1       -0.2892
      9 C          62.3993   90.5687   11.4772 C.3     1  UNL1        0.1064
     10 C          61.7685   89.4664   10.6789 C.3     1  UNL1        0.1497
     11 C          60.8839   89.4840    9.4677 C.2     1  UNL1        0.2919
     12 O          60.4868   90.7909    8.8478 O.2     1  UNL1       -0.2563
     13 H          59.7252   85.6098    8.1097 H       1  UNL1        0.3058
     14 H          61.9387   86.0123   11.1142 H       1  UNL1        0.2454
     15 C          63.9785   90.6772   13.6311 C.ar    1  UNL1        0.1320
     16 C          65.3083   91.2747   13.2782 C.ar    1  UNL1        0.0366
     17 C          66.1005   92.0090   14.3190 C.ar    1  UNL1        0.0341
     18 C          65.5629   92.1458   15.7127 C.ar    1  UNL1        0.1593
     19 F          66.3552   92.8801   16.7534 F       1  UNL1       -0.2025
     20 C          64.2331   91.5483   16.0656 C.ar    1  UNL1        0.1298
     21 N          63.4409   90.8140   15.0248 N.ar    1  UNL1       -0.2268
     22 C          62.6433   86.9364   12.0239 C.ar    1  UNL1        0.0397
     23 C          62.1601   85.5341   11.8008 C.ar    1  UNL1        0.0057
     24 C          62.9063   84.6319   12.7386 C.ar    1  UNL1        0.0068
     25 C          63.8507   85.4768   13.5413 C.ar    1  UNL1        0.0352
     26 S          63.6881   86.9011   13.0996 S.2     1  UNL1       -0.0878
     27 C          62.7377   83.1459   12.8535 C.ar    1  UNL1        0.0012
     28 C          62.4140   82.5282   14.1815 C.ar    1  UNL1        0.0001
     29 C          62.2454   81.0422   14.2964 C.ar    1  UNL1        0.0007
     30 C          62.4005   80.1737   13.0832 C.ar    1  UNL1        0.0103
     31 C          62.7242   80.7914   11.7552 C.ar    1  UNL1        0.0684
     32 C          62.8928   82.2774   11.6403 C.ar    1  UNL1        0.0103
     33 C          62.8794   79.9230   10.5420 C.1     1  UNL1        0.1004
     34 N          63.0345   79.0547    9.3287 N.1     1  UNL1       -0.1908
@<TRIPOS>BOND
     1     1     2    1
     2     2     3    1
     3     3     4    2
     4     3     5    1
     5     5     6    1
     6     6    22    1
     7    22    23   ar
     8    23    24   ar
     9    24    27    1
    10    27    28   ar
    11    28    29   ar
    12    29    30   ar
    13    30    31   ar
    14    31    33    1
    15    33    34    3
    16    31    32   ar
    17    24    25   ar
    18    25    26   ar
    19     6     7    1
    20     7     8    1
    21     8    15    1
    22    15    16   ar
    23    16    17   ar
    24    17    18   ar
    25    18    19    1
    26    18    20   ar
    27    20    21   ar
    28     8     9    1
    29    10     9    1
    30    10    11    1
    31    11    12    2
    32    11     2   am
    33    10     6    1
    34    26    22   ar
    35    21    15   ar
    36    32    27   ar
    37     4    13    1
    38     5    14    1
@<TRIPOS>MOLECULE
*****
 34 38 0 0 0
SMALL
GASTEIGER

@<TRIPOS>ATOM
      1 C          59.9762   88.2458    8.0755 C.3     1  UNL1        0.2159
      2 N          60.8645   88.2782    9.2838 N.am    1  UNL1       -0.1449
      3 C          61.2024   87.0048   10.0007 C.2     1  UNL1        0.3728
      4 N          60.6519   85.6987    9.5094 N.2     1  UNL1       -0.1329
      5 N          62.0907   87.0373   11.2090 N.pl3   1  UNL1       -0.2247
      6 C          62.6411   88.3433   11.7002 C.3     1  UNL1        0.1559
      7 C          63.5355   88.6847   12.8550 C.3     1  UNL1        0.1314
      8 N          63.7504   90.1692   12.8517 N.pl3   1  UNL1       -0.2892
      9 C          62.9889   90.7453   11.6949 C.3     1  UNL1        0.1064
     10 C          62.3033   89.6168   10.9832 C.3     1  UNL1        0.1497
     11 C          61.4150   89.5842    9.7750 C.2     1  UNL1        0.2919
     12 O          61.0771   90.8577    9.0580 O.2     1  UNL1       -0.2563
     13 H          60.0689   85.6774    8.7164 H       1  UNL1        0.3058
     14 H          62.3125   86.2014   11.6796 H       1  UNL1        0.2454
     15 C          64.5811   90.9420   13.8329 C.ar    1  UNL1        0.1320
     16 C          65.9709   91.3703   13.4656 C.ar    1  UNL1        0.0366
     17 C          66.8015   92.1431   14.4468 C.ar    1  UNL1        0.0341
     18 C          66.2424   92.4877   15.7954 C.ar    1  UNL1        0.1593
     19 F          67.0730   93.2605   16.7766 F       1  UNL1       -0.2025
     20 C          64.8525   92.0594   16.1627 C.ar    1  UNL1        0.1298
     21 N          64.0219   91.2866   15.1814 N.ar    1  UNL1       -0.2268
     22 C          63.0640   87.1575   12.5158 C.ar    1  UNL1        0.0397
     23 C          62.6694   85.7316   12.2689 C.ar    1  UNL1        0.0057
     24 C          63.3172   84.8823   13.3220 C.ar    1  UNL1        0.0068
     25 C          64.1121   85.7834   14.2199 C.ar    1  UNL1        0.0352
     26 S          63.9556   87.1896   13.7216 S.2     1  UNL1       -0.0878
     27 C          63.1920   83.3934   13.4541 C.ar    1  UNL1        0.0012
     28 C          64.3984   82.5204   13.2741 C.ar    1  UNL1        0.0001
     29 C          64.2732   81.0315   13.4062 C.ar    1  UNL1        0.0007
     30 C          62.9416   80.4155   13.7184 C.ar    1  UNL1        0.0103
     31 C          61.7353   81.2886   13.8984 C.ar    1  UNL1        0.0684
     32 C          61.8604   82.7775   13.7663 C.ar    1  UNL1        0.0103
     33 C          60.4036   80.6727   14.2106 C.1     1  UNL1        0.1004
     34 N          59.0719   80.0568   14.5227 N.1     1  UNL1       -0.1908
@<TRIPOS>BOND
     1     1     2    1
     2     2     3    1
     3     3     4    2
     4     3     5    1
     5     5     6    1
     6     6    22    1
     7    22    23   ar
     8    23    24   ar
     9    24    27    1
    10    27    28   ar
    11    28    29   ar
    12    29    30   ar
    13    30    31   ar
    14    31    33    1
    15    33    34    3
    16    31    32   ar
    17    24    25   ar
    18    25    26   ar
    19     6     7    1
    20     7     8    1
    21     8    15    1
    22    15    16   ar
    23    16    17   ar
    24    17    18   ar
    25    18    19    1
    26    18    20   ar
    27    20    21   ar
    28     8     9    1
    29    10     9    1
    30    10    11    1
    31    11    12    2
    32    11     2   am
    33    10     6    1
    34    26    22   ar
    35    21    15   ar
    36    32    27   ar
    37     4    13    1
    38     5    14    1
@<TRIPOS>MOLECULE
*****
 34 38 0 0 0
SMALL
GASTEIGER

@<TRIPOS>ATOM
      1 C          58.3503   88.3015    6.7203 C.3     1  UNL1        0.2159
      2 N          59.4163   88.0710    7.7502 N.am    1  UNL1       -0.1449
      3 C          59.9817   86.6961    7.9497 C.2     1  UNL1        0.3728
      4 N          59.4811   85.5515    7.1194 N.2     1  UNL1       -0.1329
      5 N          61.0477   86.4657    8.9796 N.pl3   1  UNL1       -0.2247
      6 C          61.5482   87.6102    9.8099 C.3     1  UNL1        0.1559
      7 C          62.5831   87.6873   10.8930 C.3     1  UNL1        0.1314
      8 N          62.6573   89.1099   11.3628 N.pl3   1  UNL1       -0.2892
      9 C          61.6683   89.9120   10.5701 C.3     1  UNL1        0.1064
     10 C          60.9828   88.9852    9.6104 C.3     1  UNL1        0.1497
     11 C          59.9169   89.2156    8.5805 C.2     1  UNL1        0.2919
     12 O          59.3514   90.5905    8.3809 O.2     1  UNL1       -0.2563
     13 H          58.7815   85.7027    6.4434 H       1  UNL1        0.3058
     14 H          61.4188   85.5632    9.1106 H       1  UNL1        0.2454
     15 C          63.5617   89.6377   12.4368 C.ar    1  UNL1        0.1320
     16 C          63.8718   88.7941   13.6378 C.ar    1  UNL1        0.0366
     17 C          64.7762   89.3220   14.7117 C.ar    1  UNL1        0.0341
     18 C          65.3706   90.6934   14.5847 C.ar    1  UNL1        0.1593
     19 F          66.2751   91.2212   15.6587 F       1  UNL1       -0.2025
     20 C          65.0606   91.5369   13.3838 C.ar    1  UNL1        0.1298
     21 N          64.1561   91.0090   12.3098 N.ar    1  UNL1       -0.2268
     22 C          62.2051   86.2980   10.1206 C.ar    1  UNL1        0.0397
     23 C          61.9638   85.4580   11.3397 C.ar    1  UNL1        0.0057
     24 C          62.8281   84.2362   11.2392 C.ar    1  UNL1        0.0068
     25 C          63.6036   84.3210    9.9580 C.ar    1  UNL1        0.0352
     26 S          63.2184   85.5953    9.2667 S.2     1  UNL1       -0.0878
     27 C          62.9038   83.1247   12.2436 C.ar    1  UNL1        0.0012
     28 C          64.2314   82.7105   12.8055 C.ar    1  UNL1        0.0001
     29 C          64.3071   81.5990   13.8098 C.ar    1  UNL1        0.0007
     30 C          63.0550   80.9016   14.2525 C.ar    1  UNL1        0.0103
     31 C          61.7273   81.3158   13.6907 C.ar    1  UNL1        0.0684
     32 C          61.6517   82.4273   12.6863 C.ar    1  UNL1        0.0103
     33 C          60.4751   80.6185   14.1333 C.1     1  UNL1        0.1004
     34 N          59.2229   79.9212   14.5758 N.1     1  UNL1       -0.1908
@<TRIPOS>BOND
     1     1     2    1
     2     2     3    1
     3     3     4    2
     4     3     5    1
     5     5     6    1
     6     6    22    1
     7    22    23   ar
     8    23    24   ar
     9    24    27    1
    10    27    28   ar
    11    28    29   ar
    12    29    30   ar
    13    30    31   ar
    14    31    33    1
    15    33    34    3
    16    31    32   ar
    17    24    25   ar
    18    25    26   ar
    19     6     7    1
    20     7     8    1
    21     8    15    1
    22    15    16   ar
    23    16    17   ar
    24    17    18   ar
    25    18    19    1
    26    18    20   ar
    27    20    21   ar
    28     8     9    1
    29    10     9    1
    30    10    11    1
    31    11    12    2
    32    11     2   am
    33    10     6    1
    34    26    22   ar
    35    21    15   ar
    36    32    27   ar
    37     4    13    1
    38     5    14    1
@<TRIPOS>MOLECULE
*****
 34 38 0 0 0
SMALL
GASTEIGER

@<TRIPOS>ATOM
      1 C          66.8642   95.2818   12.1078 C.3     1  UNL1        0.2159
      2 N          66.0780   94.0172   12.2887 N.am    1  UNL1       -0.1449
      3 C          65.2229   93.4993   11.1705 C.2     1  UNL1        0.3728
      4 N          65.1539   94.2459    9.8713 N.2     1  UNL1       -0.1329
      5 N          64.4367   92.2346   11.3514 N.pl3   1  UNL1       -0.2247
      6 C          64.5058   91.4880   12.6506 C.3     1  UNL1        0.1559
      7 C          63.8477   90.2236   13.1177 C.3     1  UNL1        0.1314
      8 N          64.2962   89.9601   14.5246 N.pl3   1  UNL1       -0.2892
      9 C          65.2315   91.0617   14.9270 C.3     1  UNL1        0.1064
     10 C          65.3610   92.0060   13.7687 C.3     1  UNL1        0.1497
     11 C          66.1471   93.2706   13.5878 C.2     1  UNL1        0.2919
     12 O          67.0023   93.7886   14.7060 O.2     1  UNL1       -0.2563
     13 H          65.6698   95.0759    9.7526 H       1  UNL1        0.3058
     14 H          63.8754   91.8946   10.6175 H       1  UNL1        0.2454
     15 C          63.8822   88.7989   15.3791 C.ar    1  UNL1        0.1320
     16 C          63.1557   89.0386   16.6693 C.ar    1  UNL1        0.0366
     17 C          62.7417   87.8773   17.5238 C.ar    1  UNL1        0.0341
     18 C          63.0542   86.4764   17.0881 C.ar    1  UNL1        0.1593
     19 F          62.6402   85.3152   17.9427 F       1  UNL1       -0.2025
     20 C          63.7808   86.2367   15.7979 C.ar    1  UNL1        0.1298
     21 N          64.1948   87.3980   14.9434 N.ar    1  UNL1       -0.2268
     22 C          63.6120   90.8515   11.6278 C.ar    1  UNL1        0.0397
     23 C          63.4601   89.3794   11.3835 C.ar    1  UNL1        0.0057
     24 C          62.4674   89.1935   10.2744 C.ar    1  UNL1        0.0068
     25 C          62.0058   90.5508    9.8332 C.ar    1  UNL1        0.0352
     26 S          62.7132   91.5755   10.6697 S.2     1  UNL1       -0.0878
     27 C          62.0157   87.8808    9.7063 C.ar    1  UNL1        0.0012
     28 C          60.7636   87.8108    8.8834 C.ar    1  UNL1        0.0001
     29 C          60.3118   86.4981    8.3153 C.ar    1  UNL1        0.0007
     30 C          61.1123   85.2554    8.5700 C.ar    1  UNL1        0.0103
     31 C          62.3644   85.3254    9.3929 C.ar    1  UNL1        0.0684
     32 C          62.8161   86.6381    9.9610 C.ar    1  UNL1        0.0103
     33 C          63.1649   84.0827    9.6477 C.1     1  UNL1        0.1004
     34 N          63.9653   82.8399    9.9025 N.1     1  UNL1       -0.1908
@<TRIPOS>BOND
     1     1     2    1
     2     2     3    1
     3     3     4    2
     4     3     5    1
     5     5     6    1
     6     6    22    1
     7    22    23   ar
     8    23    24   ar
     9    24    27    1
    10    27    28   ar
    11    28    29   ar
    12    29    30   ar
    13    30    31   ar
    14    31    33    1
    15    33    34    3
    16    31    32   ar
    17    24    25   ar
    18    25    26   ar
    19     6     7    1
    20     7     8    1
    21     8    15    1
    22    15    16   ar
    23    16    17   ar
    24    17    18   ar
    25    18    19    1
    26    18    20   ar
    27    20    21   ar
    28     8     9    1
    29    10     9    1
    30    10    11    1
    31    11    12    2
    32    11     2   am
    33    10     6    1
    34    26    22   ar
    35    21    15   ar
    36    32    27   ar
    37     4    13    1
    38     5    14    1
@<TRIPOS>MOLECULE
*****
 34 38 0 0 0
SMALL
GASTEIGER

@<TRIPOS>ATOM
      1 C          63.8890   81.0203   14.1427 C.3     1  UNL1        0.2159
      2 N          63.5955   82.4143   13.6727 N.am    1  UNL1       -0.1449
      3 C          64.1142   83.5909   14.4448 C.2     1  UNL1        0.3728
      4 N          64.9265   83.3738   15.6871 N.2     1  UNL1       -0.1329
      5 N          63.8206   84.9849   13.9748 N.pl3   1  UNL1       -0.2247
      6 C          63.0084   85.2020   12.7326 C.3     1  UNL1        0.1559
      7 C          62.5615   86.4502   12.0311 C.3     1  UNL1        0.1314
      8 N          61.7666   86.0449   10.8253 N.pl3   1  UNL1       -0.2892
      9 C          61.7222   84.5462   10.7816 C.3     1  UNL1        0.1064
     10 C          62.4897   84.0252   11.9604 C.3     1  UNL1        0.1497
     11 C          62.7833   82.6314   12.4305 C.2     1  UNL1        0.2919
     12 O          62.2646   81.4546   11.6583 O.2     1  UNL1       -0.2563
     13 H          65.1191   82.4589   15.9956 H       1  UNL1        0.3058
     14 H          64.1611   85.7572   14.4816 H       1  UNL1        0.2454
     15 C          61.1282   86.9750    9.8367 C.ar    1  UNL1        0.1320
     16 C          60.4051   86.4214    8.6448 C.ar    1  UNL1        0.0366
     17 C          59.7667   87.3516    7.6563 C.ar    1  UNL1        0.0341
     18 C          59.8513   88.8354    7.8596 C.ar    1  UNL1        0.1593
     19 F          59.2128   89.7655    6.8710 F       1  UNL1       -0.2025
     20 C          60.5743   89.3890    9.0515 C.ar    1  UNL1        0.1298
     21 N          61.2128   88.4588   10.0400 N.ar    1  UNL1       -0.2268
     22 C          63.4575   86.4695   13.3972 C.ar    1  UNL1        0.0397
     23 C          63.8144   87.7504   12.7032 C.ar    1  UNL1        0.0057
     24 C          64.2060   88.7511   13.7497 C.ar    1  UNL1        0.0068
     25 C          64.0913   88.0887   15.0905 C.ar    1  UNL1        0.0352
     26 S          63.6286   86.6785   14.8727 S.2     1  UNL1       -0.0878
     27 C          64.6369   90.1659   13.4993 C.ar    1  UNL1        0.0012
     28 C          64.1416   90.8974   12.2871 C.ar    1  UNL1        0.0001
     29 C          64.5724   92.3122   12.0367 C.ar    1  UNL1        0.0007
     30 C          65.4986   92.9956   12.9985 C.ar    1  UNL1        0.0103
     31 C          65.9939   92.2641   14.2108 C.ar    1  UNL1        0.0684
     32 C          65.5631   90.8493   14.4612 C.ar    1  UNL1        0.0103
     33 C          66.9201   92.9474   15.1727 C.1     1  UNL1        0.1004
     34 N          67.8463   93.6306   16.1347 N.1     1  UNL1       -0.1908
@<TRIPOS>BOND
     1     1     2    1
     2     2     3    1
     3     3     4    2
     4     3     5    1
     5     5     6    1
     6     6    22    1
     7    22    23   ar
     8    23    24   ar
     9    24    27    1
    10    27    28   ar
    11    28    29   ar
    12    29    30   ar
    13    30    31   ar
    14    31    33    1
    15    33    34    3
    16    31    32   ar
    17    24    25   ar
    18    25    26   ar
    19     6     7    1
    20     7     8    1
    21     8    15    1
    22    15    16   ar
    23    16    17   ar
    24    17    18   ar
    25    18    19    1
    26    18    20   ar
    27    20    21   ar
    28     8     9    1
    29    10     9    1
    30    10    11    1
    31    11    12    2
    32    11     2   am
    33    10     6    1
    34    26    22   ar
    35    21    15   ar
    36    32    27   ar
    37     4    13    1
    38     5    14    1
