@<TRIPOS>MOLECULE
*****
 45 50 0 0 0
SMALL
GASTEIGER

@<TRIPOS>ATOM
      1 C          56.2328   92.4540   -6.5722 C.ar    1  UNL1        0.1348
      2 C          56.6834   93.5574   -7.4828 C.ar    1  UNL1        0.0346
      3 C          57.7993   94.4677   -7.0631 C.ar    1  UNL1        0.0065
      4 C          58.4645   94.2746   -5.7326 C.ar    1  UNL1        0.0432
      5 C          58.0139   93.1712   -4.8220 C.ar    1  UNL1        0.1256
      6 N          56.8980   92.2609   -5.2417 N.ar    1  UNL1       -0.2222
      7 C          59.5804   95.1849   -5.3129 C.ar    1  UNL1        0.0850
      8 C          59.5430   96.1573   -4.1714 C.ar    1  UNL1        0.1001
      9 N          60.8690   96.8560   -4.1139 N.ar    1  UNL1       -0.2264
     10 C          61.7261   96.3154   -5.2199 C.ar    1  UNL1        0.1474
     11 C          63.1288   96.6301   -5.6480 C.ar    1  UNL1        0.0332
     12 C          63.7351   95.9121   -6.8171 C.ar    1  UNL1       -0.0174
     13 C          65.1378   96.2268   -7.2452 C.3     1  UNL1        0.0312
     14 C          62.9387   94.8793   -7.5581 C.ar    1  UNL1        0.0149
     15 C          61.5360   94.5645   -7.1300 C.ar    1  UNL1        0.0811
     16 N          60.9297   95.2826   -5.9609 N.ar    1  UNL1       -0.2888
     17 C          58.3830   96.3901   -3.2492 C.ar    1  UNL1        0.0327
     18 C          57.0062   96.5877   -3.8109 C.ar    1  UNL1        0.0043
     19 C          55.8463   96.8205   -2.8887 C.ar    1  UNL1        0.0207
     20 C          56.0631   96.8559   -1.4049 C.ar    1  UNL1        0.0984
     21 N          57.4399   96.6583   -0.8433 N.ar    1  UNL1       -0.2481
     22 C          58.5998   96.4255   -1.7654 C.ar    1  UNL1        0.0609
     23 C          59.9766   96.2279   -1.2036 C.3     1  UNL1        0.0521
     24 C          54.6144   90.4897   -6.0505 C.2     1  UNL1        0.2414
     25 O          55.2277   90.3460   -4.6891 O.2     1  UNL1       -0.2733
     26 N          55.1169   91.5437   -6.9920 N.am    1  UNL1       -0.2682
     27 H          54.7144   91.6381   -7.8854 H       1  UNL1        0.1563
     28 C          53.4985   89.5794   -6.4702 C.3     1  UNL1        0.1319
     29 C          52.4911   90.0441   -7.4799 C.3     1  UNL1        0.0270
     30 C          53.7411   87.9765   -4.4400 C.3     1  UNL1        0.0862
     31 N          53.3900   88.2046   -5.8804 N.3     1  UNL1       -0.2902
     32 H          52.4206   87.9096   -5.9974 H       1  UNL1        0.1237
     33 C          58.6791   92.9780   -3.4914 C.1     1  UNL1       -0.0404
     34 C          59.3444   92.7848   -2.1610 C.1     1  UNL1       -0.0583
     35 C          60.0096   92.5916   -0.8305 C.ar    1  UNL1        0.0420
     36 C          61.4924   92.3776   -0.7574 C.ar    1  UNL1        0.0083
     37 C          62.1576   92.1845    0.5731 C.ar    1  UNL1        0.0018
     38 C          61.3399   92.2053    1.8304 C.ar    1  UNL1        0.0137
     39 C          62.0052   92.0121    3.1610 C.ar    1  UNL1        0.0594
     40 C          63.4880   91.7981    3.2341 C.3     1  UNL1        0.0521
     41 N          61.1875   92.0330    4.4183 N.ar    1  UNL1       -0.2481
     42 C          59.7046   92.2470    4.3452 C.ar    1  UNL1        0.0984
     43 C          59.0395   92.4401    3.0147 C.ar    1  UNL1        0.0207
     44 C          59.8571   92.4193    1.7574 C.ar    1  UNL1        0.0033
     45 C          59.1920   92.6125    0.4269 C.ar    1  UNL1        0.0083
@<TRIPOS>BOND
     1    30    31    1
     2    31    28    1
     3    28    29    1
     4    28    24    1
     5    24    25    2
     6    24    26   am
     7    26     1    1
     8     1     2   ar
     9     2     3   ar
    10     3     4   ar
    11     4     7    1
    12     7     8   ar
    13     8    17    1
    14    17    18   ar
    15    18    19   ar
    16    19    20   ar
    17    20    21   ar
    18    21    22   ar
    19    22    23    1
    20     8     9   ar
    21     9    10   ar
    22    10    11   ar
    23    11    12   ar
    24    12    13    1
    25    12    14   ar
    26    14    15   ar
    27    15    16   ar
    28     4     5   ar
    29     5    33    1
    30    33    34    3
    31    34    35    1
    32    35    36   ar
    33    36    37   ar
    34    37    38   ar
    35    38    39   ar
    36    39    40    1
    37    39    41   ar
    38    41    42   ar
    39    42    43   ar
    40    43    44   ar
    41    44    45   ar
    42     5     6   ar
    43     6     1   ar
    44    16     7   ar
    45    45    35   ar
    46    22    17   ar
    47    16    10   ar
    48    44    38   ar
    49    31    32    1
    50    26    27    1
@<TRIPOS>MOLECULE
*****
 45 50 0 0 0
SMALL
GASTEIGER

@<TRIPOS>ATOM
      1 C          55.7204   91.4474   -5.9204 C.ar    1  UNL1        0.1348
      2 C          55.7830   92.5670   -6.9167 C.ar    1  UNL1        0.0346
      3 C          56.7639   93.6858   -6.7271 C.ar    1  UNL1        0.0065
      4 C          57.6823   93.6851   -5.5411 C.ar    1  UNL1        0.0432
      5 C          57.6197   92.5656   -4.5448 C.ar    1  UNL1        0.1256
      6 N          56.6388   91.4468   -4.7344 N.ar    1  UNL1       -0.2222
      7 C          58.6633   94.8039   -5.3515 C.ar    1  UNL1        0.0850
      8 C          58.4834   95.9914   -4.4529 C.ar    1  UNL1        0.1001
      9 N          59.7053   96.8531   -4.5732 N.ar    1  UNL1       -0.2264
     10 C          60.6403   96.1982   -5.5463 C.ar    1  UNL1        0.1474
     11 C          61.9950   96.5914   -6.0564 C.ar    1  UNL1        0.0332
     12 C          62.7056   95.7182   -7.0476 C.ar    1  UNL1       -0.0174
     13 C          64.0603   96.1114   -7.5578 C.3     1  UNL1        0.0312
     14 C          62.0616   94.4517   -7.5287 C.ar    1  UNL1        0.0149
     15 C          60.7070   94.0585   -7.0185 C.ar    1  UNL1        0.0811
     16 N          59.9963   94.9317   -6.0273 N.ar    1  UNL1       -0.2888
     17 C          57.2910   96.2685   -3.5861 C.ar    1  UNL1        0.0327
     18 C          55.9470   96.4995   -4.2109 C.ar    1  UNL1        0.0043
     19 C          54.7546   96.7766   -3.3441 C.ar    1  UNL1        0.0207
     20 C          54.9061   96.8229   -1.8525 C.ar    1  UNL1        0.0984
     21 N          56.2501   96.5919   -1.2277 N.ar    1  UNL1       -0.2481
     22 C          57.4425   96.3148   -2.0945 C.ar    1  UNL1        0.0609
     23 C          58.7865   96.0838   -1.4696 C.3     1  UNL1        0.0521
     24 C          54.4574   89.3794   -4.9833 C.2     1  UNL1        0.2414
     25 O          55.1563   89.5490   -3.6669 O.2     1  UNL1       -0.2733
     26 N          54.7394   90.3286   -6.1100 N.am    1  UNL1       -0.2682
     27 H          54.2807   90.2173   -6.9739 H       1  UNL1        0.1563
     28 C          53.4764   88.2606   -5.1729 C.3     1  UNL1        0.1319
     29 C          53.8919   86.8449   -4.9020 C.3     1  UNL1        0.0270
     30 C          51.7875   89.8324   -6.3673 C.3     1  UNL1        0.0862
     31 N          52.0801   88.5574   -5.6334 N.3     1  UNL1       -0.2902
     32 H          51.8047   87.7929   -6.2500 H       1  UNL1        0.1237
     33 C          58.5382   92.5649   -3.3588 C.1     1  UNL1       -0.0404
     34 C          59.4566   92.5641   -2.1729 C.1     1  UNL1       -0.0583
     35 C          60.3750   92.5634   -0.9868 C.ar    1  UNL1        0.0420
     36 C          60.1951   91.5458    0.1004 C.ar    1  UNL1        0.0083
     37 C          61.1135   91.5452    1.2864 C.ar    1  UNL1        0.0018
     38 C          62.2118   92.5620    1.3851 C.ar    1  UNL1        0.0137
     39 C          63.1302   92.5613    2.5711 C.ar    1  UNL1        0.0594
     40 C          62.9503   91.5437    3.6584 C.3     1  UNL1        0.0521
     41 N          64.2285   93.5781    2.6698 N.ar    1  UNL1       -0.2481
     42 C          64.4084   94.5957    1.5824 C.ar    1  UNL1        0.0984
     43 C          63.4900   94.5964    0.3965 C.ar    1  UNL1        0.0207
     44 C          62.3917   93.5796    0.2978 C.ar    1  UNL1        0.0033
     45 C          61.4733   93.5802   -0.8881 C.ar    1  UNL1        0.0083
@<TRIPOS>BOND
     1    30    31    1
     2    31    28    1
     3    28    29    1
     4    28    24    1
     5    24    25    2
     6    24    26   am
     7    26     1    1
     8     1     2   ar
     9     2     3   ar
    10     3     4   ar
    11     4     7    1
    12     7     8   ar
    13     8    17    1
    14    17    18   ar
    15    18    19   ar
    16    19    20   ar
    17    20    21   ar
    18    21    22   ar
    19    22    23    1
    20     8     9   ar
    21     9    10   ar
    22    10    11   ar
    23    11    12   ar
    24    12    13    1
    25    12    14   ar
    26    14    15   ar
    27    15    16   ar
    28     4     5   ar
    29     5    33    1
    30    33    34    3
    31    34    35    1
    32    35    36   ar
    33    36    37   ar
    34    37    38   ar
    35    38    39   ar
    36    39    40    1
    37    39    41   ar
    38    41    42   ar
    39    42    43   ar
    40    43    44   ar
    41    44    45   ar
    42     5     6   ar
    43     6     1   ar
    44    16     7   ar
    45    45    35   ar
    46    22    17   ar
    47    16    10   ar
    48    44    38   ar
    49    31    32    1
    50    26    27    1
