@<TRIPOS>MOLECULE
*****
 17 18 0 0 0
SMALL
GASTEIGER

@<TRIPOS>ATOM
      1 C          62.6136   84.6008   10.9743 C.2     1  UNL1        0.0435
      2 C          62.6705   85.2583    9.6273 C.2     1  UNL1        0.0033
      3 C          61.8745   86.5025    9.3657 C.ar    1  UNL1        0.0006
      4 C          60.6770   86.4510    8.4639 C.ar    1  UNL1        0.0000
      5 C          59.8810   87.6952    8.2024 C.ar    1  UNL1        0.0005
      6 C          60.2826   88.9909    8.8427 C.ar    1  UNL1        0.0067
      7 C          61.4801   89.0424    9.7445 C.ar    1  UNL1        0.0346
      8 BR         61.8816   90.3381   10.3848 Br      1  UNL1       -0.0490
      9 C          62.2760   87.7982   10.0060 C.ar    1  UNL1        0.0067
     10 O          64.6976   83.1225   10.5035 O.2     1  UNL1       -0.2850
     11 C          63.4096   83.3566   11.2358 C.2     1  UNL1        0.2111
     12 C          62.9177   82.3466   12.2297 C.ar    1  UNL1        0.0961
     13 C          62.9118   80.8581   12.0447 C.ar    1  UNL1        0.0218
     14 C          62.3358   80.2392   13.2837 C.ar    1  UNL1        0.0200
     15 C          61.9856   81.3454   14.2345 C.ar    1  UNL1        0.0725
     16 N          62.3452   82.6477   13.5831 N.ar    1  UNL1       -0.3495
     17 H          62.2264   83.5430   13.9750 H       1  UNL1        0.1661
@<TRIPOS>BOND
     1    10    11    2
     2    11     1    1
     3     1     2    2
     4     2     3    1
     5     3     4   ar
     6     4     5   ar
     7     5     6   ar
     8     6     7   ar
     9     7     8    1
    10     7     9   ar
    11    11    12    1
    12    12    13   ar
    13    13    14   ar
    14    14    15   ar
    15    15    16   ar
    16     9     3   ar
    17    16    12   ar
    18    16    17    1
@<TRIPOS>MOLECULE
*****
 17 18 0 0 0
SMALL
GASTEIGER

@<TRIPOS>ATOM
      1 C          63.1633   85.2837   12.8539 C.2     1  UNL1        0.0435
      2 C          62.6098   85.1216   11.4693 C.2     1  UNL1        0.0033
      3 C          61.9955   86.2950   10.7650 C.ar    1  UNL1        0.0006
      4 C          62.4057   87.6898   11.1337 C.ar    1  UNL1        0.0000
      5 C          61.7914   88.8631   10.4295 C.ar    1  UNL1        0.0005
      6 C          60.7669   88.6415    9.3565 C.ar    1  UNL1        0.0067
      7 C          60.3567   87.2466    8.9877 C.ar    1  UNL1        0.0346
      8 BR         59.3322   87.0250    7.9147 Br      1  UNL1       -0.0490
      9 C          60.9710   86.0733    9.6920 C.ar    1  UNL1        0.0067
     10 O          65.1023   84.2580   14.2462 O.2     1  UNL1       -0.2850
     11 C          63.7776   84.1103   13.5582 C.2     1  UNL1        0.2111
     12 C          63.0672   82.7893   13.5744 C.ar    1  UNL1        0.0961
     13 C          63.3000   81.6514   12.6252 C.ar    1  UNL1        0.0218
     14 C          62.3760   80.5331   13.0068 C.ar    1  UNL1        0.0200
     15 C          61.5721   80.9799   14.1919 C.ar    1  UNL1        0.0725
     16 N          61.9994   82.3743   14.5426 N.ar    1  UNL1       -0.3495
     17 H          61.6418   82.9211   15.2791 H       1  UNL1        0.1661
@<TRIPOS>BOND
     1    10    11    2
     2    11     1    1
     3     1     2    2
     4     2     3    1
     5     3     4   ar
     6     4     5   ar
     7     5     6   ar
     8     6     7   ar
     9     7     8    1
    10     7     9   ar
    11    11    12    1
    12    12    13   ar
    13    13    14   ar
    14    14    15   ar
    15    15    16   ar
    16     9     3   ar
    17    16    12   ar
    18    16    17    1
@<TRIPOS>MOLECULE
*****
 17 18 0 0 0
SMALL
GASTEIGER

@<TRIPOS>ATOM
      1 C          63.6495   90.8209   14.1631 C.2     1  UNL1        0.0435
      2 C          63.8757   89.4267   13.6583 C.2     1  UNL1        0.0033
      3 C          63.2300   88.9774   12.3811 C.ar    1  UNL1        0.0006
      4 C          62.9174   89.9764   11.3069 C.ar    1  UNL1        0.0000
      5 C          62.2716   89.5271   10.0298 C.ar    1  UNL1        0.0005
      6 C          61.9385   88.0787    9.8269 C.ar    1  UNL1        0.0067
      7 C          62.2511   87.0796   10.9012 C.ar    1  UNL1        0.0346
      8 BR         61.9180   85.6312   10.6983 Br      1  UNL1       -0.0490
      9 C          62.8968   87.5290   12.1783 C.ar    1  UNL1        0.0067
     10 O          63.5561   91.1436   16.7394 O.2     1  UNL1       -0.2850
     11 C          64.2952   91.2703   15.4403 C.2     1  UNL1        0.2111
     12 C          65.6801   91.8462   15.4184 C.ar    1  UNL1        0.0961
     13 C          66.7587   91.5111   14.4314 C.ar    1  UNL1        0.0218
     14 C          67.9747   92.3161   14.7826 C.ar    1  UNL1        0.0200
     15 C          67.6476   93.1488   15.9867 C.ar    1  UNL1        0.0725
     16 N          66.2294   92.8583   16.3796 N.ar    1  UNL1       -0.3495
     17 H          65.7443   93.2612   17.1356 H       1  UNL1        0.1661
@<TRIPOS>BOND
     1    10    11    2
     2    11     1    1
     3     1     2    2
     4     2     3    1
     5     3     4   ar
     6     4     5   ar
     7     5     6   ar
     8     6     7   ar
     9     7     8    1
    10     7     9   ar
    11    11    12    1
    12    12    13   ar
    13    13    14   ar
    14    14    15   ar
    15    15    16   ar
    16     9     3   ar
    17    16    12   ar
    18    16    17    1
@<TRIPOS>MOLECULE
*****
 17 18 0 0 0
SMALL
GASTEIGER

@<TRIPOS>ATOM
      1 C          60.9539   86.0501    9.4726 C.2     1  UNL1        0.0435
      2 C          61.7902   86.0281   10.7176 C.2     1  UNL1        0.0033
      3 C          62.6468   84.8357   11.0248 C.ar    1  UNL1        0.0006
      4 C          63.4443   84.1841    9.9342 C.ar    1  UNL1        0.0000
      5 C          64.3009   82.9918   10.2415 C.ar    1  UNL1        0.0005
      6 C          64.3599   82.4509   11.6393 C.ar    1  UNL1        0.0067
      7 C          63.5624   83.1024   12.7299 C.ar    1  UNL1        0.0346
      8 BR         63.6214   82.5615   14.1277 Br      1  UNL1       -0.0490
      9 C          62.7058   84.2948   12.4226 C.ar    1  UNL1        0.0067
     10 O          59.3783   87.3311    7.8519 O.2     1  UNL1       -0.2850
     11 C          60.0973   87.2425    9.1653 C.2     1  UNL1        0.2111
     12 C          59.9597   88.3464   10.1716 C.ar    1  UNL1        0.0961
     13 C          60.1932   89.8060    9.9166 C.ar    1  UNL1        0.0218
     14 C          59.9423   90.5461   11.1969 C.ar    1  UNL1        0.0200
     15 C          59.5537   89.5440   12.2432 C.ar    1  UNL1        0.0725
     16 N          59.5645   88.1845   11.6095 N.ar    1  UNL1       -0.3495
     17 H          59.3498   87.3350   12.0585 H       1  UNL1        0.1661
@<TRIPOS>BOND
     1    10    11    2
     2    11     1    1
     3     1     2    2
     4     2     3    1
     5     3     4   ar
     6     4     5   ar
     7     5     6   ar
     8     6     7   ar
     9     7     8    1
    10     7     9   ar
    11    11    12    1
    12    12    13   ar
    13    13    14   ar
    14    14    15   ar
    15    15    16   ar
    16     9     3   ar
    17    16    12   ar
    18    16    17    1
@<TRIPOS>MOLECULE
*****
 17 18 0 0 0
SMALL
GASTEIGER

@<TRIPOS>ATOM
      1 C          64.1912   91.7064   10.8427 C.2     1  UNL1        0.0435
      2 C          63.5888   90.6560   11.7279 C.2     1  UNL1        0.0033
      3 C          62.4695   89.7971   11.2181 C.ar    1  UNL1        0.0006
      4 C          61.2595   90.4316   10.5991 C.ar    1  UNL1        0.0000
      5 C          60.1403   89.5727   10.0894 C.ar    1  UNL1        0.0005
      6 C          60.2313   88.0795   10.1986 C.ar    1  UNL1        0.0067
      7 C          61.4414   87.4450   10.8175 C.ar    1  UNL1        0.0346
      8 BR         61.5323   85.9518   10.9267 Br      1  UNL1       -0.0490
      9 C          62.5605   88.3039   11.3273 C.ar    1  UNL1        0.0067
     10 O          65.3371   92.9858   12.7921 O.2     1  UNL1       -0.2850
     11 C          65.3104   92.5652   11.3525 C.2     1  UNL1        0.2111
     12 C          66.4028   93.0034   10.4227 C.ar    1  UNL1        0.0961
     13 C          67.7084   92.2985   10.2022 C.ar    1  UNL1        0.0218
     14 C          68.4940   93.0829    9.1934 C.ar    1  UNL1        0.0200
     15 C          67.6740   94.2726    8.7905 C.ar    1  UNL1        0.0725
     16 N          66.3816   94.2234    9.5503 N.ar    1  UNL1       -0.3495
     17 H          65.6481   94.8771    9.4874 H       1  UNL1        0.1661
@<TRIPOS>BOND
     1    10    11    2
     2    11     1    1
     3     1     2    2
     4     2     3    1
     5     3     4   ar
     6     4     5   ar
     7     5     6   ar
     8     6     7   ar
     9     7     8    1
    10     7     9   ar
    11    11    12    1
    12    12    13   ar
    13    13    14   ar
    14    14    15   ar
    15    15    16   ar
    16     9     3   ar
    17    16    12   ar
    18    16    17    1
@<TRIPOS>MOLECULE
*****
 17 18 0 0 0
SMALL
GASTEIGER

@<TRIPOS>ATOM
      1 C          61.2161   86.6017   11.3031 C.2     1  UNL1        0.0435
      2 C          62.3243   85.9541   10.5269 C.2     1  UNL1        0.0033
      3 C          62.8417   84.6079   10.9393 C.ar    1  UNL1        0.0006
      4 C          63.6885   83.8082    9.9942 C.ar    1  UNL1        0.0000
      5 C          64.2059   82.4620   10.4066 C.ar    1  UNL1        0.0005
      6 C          63.8764   81.9155   11.7641 C.ar    1  UNL1        0.0067
      7 C          63.0295   82.7152   12.7092 C.ar    1  UNL1        0.0346
      8 BR         62.7000   82.1688   14.0667 Br      1  UNL1       -0.0490
      9 C          62.5121   84.0614   12.2968 C.ar    1  UNL1        0.0067
     10 O          60.7202   89.0898   11.8633 O.2     1  UNL1       -0.2850
     11 C          60.6987   87.9479   10.8908 C.2     1  UNL1        0.2111
     12 C          60.1599   88.1523    9.5059 C.ar    1  UNL1        0.0961
     13 C          59.4720   87.1174    8.6659 C.ar    1  UNL1        0.0218
     14 C          59.1014   87.7529    7.3587 C.ar    1  UNL1        0.0200
     15 C          59.5602   89.1807    7.3908 C.ar    1  UNL1        0.0725
     16 N          60.2144   89.4275    8.7179 N.ar    1  UNL1       -0.3495
     17 H          60.6101   90.2773    9.0189 H       1  UNL1        0.1661
@<TRIPOS>BOND
     1    10    11    2
     2    11     1    1
     3     1     2    2
     4     2     3    1
     5     3     4   ar
     6     4     5   ar
     7     5     6   ar
     8     6     7   ar
     9     7     8    1
    10     7     9   ar
    11    11    12    1
    12    12    13   ar
    13    13    14   ar
    14    14    15   ar
    15    15    16   ar
    16     9     3   ar
    17    16    12   ar
    18    16    17    1
@<TRIPOS>MOLECULE
*****
 17 18 0 0 0
SMALL
GASTEIGER

@<TRIPOS>ATOM
      1 C          62.5181   88.4112   10.8768 C.2     1  UNL1        0.0435
      2 C          62.2520   89.7722   11.4485 C.2     1  UNL1        0.0033
      3 C          63.3882   90.7242   11.6787 C.ar    1  UNL1        0.0006
      4 C          63.8606   91.6115   10.5654 C.ar    1  UNL1        0.0000
      5 C          64.9967   92.5634   10.7957 C.ar    1  UNL1        0.0005
      6 C          65.6604   92.6280   12.1393 C.ar    1  UNL1        0.0067
      7 C          65.1881   91.7407   13.2526 C.ar    1  UNL1        0.0346
      8 BR         65.8518   91.8053   14.5962 Br      1  UNL1       -0.0490
      9 C          64.0520   90.7888   13.0223 C.ar    1  UNL1        0.0067
     10 O          61.0727   86.4006   11.6633 O.2     1  UNL1       -0.2850
     11 C          61.3819   87.4592   10.6466 C.2     1  UNL1        0.2111
     12 C          60.5550   87.5659    9.3997 C.ar    1  UNL1        0.0961
     13 C          60.0377   86.4184    8.5839 C.ar    1  UNL1        0.0218
     14 C          59.2632   86.9821    7.4297 C.ar    1  UNL1        0.0200
     15 C          59.3018   88.4782    7.5321 C.ar    1  UNL1        0.0725
     16 N          60.1002   88.8390    8.7496 N.ar    1  UNL1       -0.3495
     17 H          60.2920   89.7511    9.0664 H       1  UNL1        0.1661
@<TRIPOS>BOND
     1    10    11    2
     2    11     1    1
     3     1     2    2
     4     2     3    1
     5     3     4   ar
     6     4     5   ar
     7     5     6   ar
     8     6     7   ar
     9     7     8    1
    10     7     9   ar
    11    11    12    1
    12    12    13   ar
    13    13    14   ar
    14    14    15   ar
    15    15    16   ar
    16     9     3   ar
    17    16    12   ar
    18    16    17    1
@<TRIPOS>MOLECULE
*****
 17 18 0 0 0
SMALL
GASTEIGER

@<TRIPOS>ATOM
      1 C          61.3584   86.5278   10.9396 C.2     1  UNL1        0.0435
      2 C          62.5182   85.7683   10.3670 C.2     1  UNL1        0.0033
      3 C          62.9052   84.4404   10.9475 C.ar    1  UNL1        0.0006
      4 C          63.6987   83.4662   10.1281 C.ar    1  UNL1        0.0000
      5 C          64.0856   82.1384   10.7087 C.ar    1  UNL1        0.0005
      6 C          63.6791   81.7847   12.1085 C.ar    1  UNL1        0.0067
      7 C          62.8856   82.7588   12.9279 C.ar    1  UNL1        0.0346
      8 BR         62.4790   82.4051   14.3277 Br      1  UNL1       -0.0490
      9 C          62.4986   84.0867   12.3473 C.ar    1  UNL1        0.0067
     10 O          59.7283   87.9776    9.5285 O.2     1  UNL1       -0.2850
     11 C          60.9714   87.8558   10.3590 C.2     1  UNL1        0.2111
     12 C          61.8275   89.0618   10.6091 C.ar    1  UNL1        0.0961
     13 C          62.7902   89.2393   11.7456 C.ar    1  UNL1        0.0218
     14 C          63.4290   90.5892   11.6054 C.ar    1  UNL1        0.0200
     15 C          62.8611   91.2460   10.3822 C.ar    1  UNL1        0.0725
     16 N          61.8714   90.3020    9.7664 N.ar    1  UNL1       -0.3495
     17 H          61.3432   90.4673    8.9522 H       1  UNL1        0.1661
@<TRIPOS>BOND
     1    10    11    2
     2    11     1    1
     3     1     2    2
     4     2     3    1
     5     3     4   ar
     6     4     5   ar
     7     5     6   ar
     8     6     7   ar
     9     7     8    1
    10     7     9   ar
    11    11    12    1
    12    12    13   ar
    13    13    14   ar
    14    14    15   ar
    15    15    16   ar
    16     9     3   ar
    17    16    12   ar
    18    16    17    1
@<TRIPOS>MOLECULE
*****
 17 18 0 0 0
SMALL
GASTEIGER

@<TRIPOS>ATOM
      1 C          66.7677   92.7085   13.9081 C.2     1  UNL1        0.0435
      2 C          65.9241   93.1746   12.7587 C.2     1  UNL1        0.0033
      3 C          66.5713   93.5625   11.4623 C.ar    1  UNL1        0.0006
      4 C          67.2752   92.5273   10.6361 C.ar    1  UNL1        0.0000
      5 C          67.9223   92.9152    9.3397 C.ar    1  UNL1        0.0005
      6 C          67.8654   94.3385    8.8695 C.ar    1  UNL1        0.0067
      7 C          67.1615   95.3738    9.6957 C.ar    1  UNL1        0.0346
      8 BR         67.1047   96.7971    9.2255 Br      1  UNL1       -0.0490
      9 C          66.5145   94.9858   10.9921 C.ar    1  UNL1        0.0067
     10 O          66.5220   93.0050   16.4775 O.2     1  UNL1       -0.2850
     11 C          66.1206   92.3205   15.2046 C.2     1  UNL1        0.2111
     12 C          65.0721   91.2481   15.2281 C.ar    1  UNL1        0.0961
     13 C          64.9871   90.0776   14.2939 C.ar    1  UNL1        0.0218
     14 C          63.7871   89.2639   14.6783 C.ar    1  UNL1        0.0200
     15 C          63.1304   89.9315   15.8502 C.ar    1  UNL1        0.0725
     16 N          63.9246   91.1578   16.1899 N.ar    1  UNL1       -0.3495
     17 H          63.7274   91.7920   16.9166 H       1  UNL1        0.1661
@<TRIPOS>BOND
     1    10    11    2
     2    11     1    1
     3     1     2    2
     4     2     3    1
     5     3     4   ar
     6     4     5   ar
     7     5     6   ar
     8     6     7   ar
     9     7     8    1
    10     7     9   ar
    11    11    12    1
    12    12    13   ar
    13    13    14   ar
    14    14    15   ar
    15    15    16   ar
    16     9     3   ar
    17    16    12   ar
    18    16    17    1
