@<TRIPOS>MOLECULE
*****
 36 40 0 0 0
SMALL
GASTEIGER

@<TRIPOS>ATOM
      1 C          64.6897   91.5687   11.9421 C.ar    1  UNL1        0.0664
      2 C          64.2291   91.9759   10.5739 C.ar    1  UNL1        0.0173
      3 C          62.9852   91.3733    9.9910 C.ar    1  UNL1       -0.0027
      4 C          62.2020   90.3635   10.7764 C.ar    1  UNL1       -0.0201
      5 C          62.6626   89.9563   12.1446 C.ar    1  UNL1       -0.0027
      6 C          63.9064   90.5589   12.7275 C.ar    1  UNL1        0.0173
      7 C          67.1033   92.7013   11.7498 C.ar    1  UNL1        0.1248
      8 N          68.1186   93.2073   12.7312 N.ar    1  UNL1       -0.2290
      9 C          67.5765   92.9900   14.1128 C.ar    1  UNL1        0.1170
     10 C          68.1380   93.2924   15.4704 C.ar    1  UNL1        0.0238
     11 C          67.3491   92.9546   16.7006 C.ar    1  UNL1        0.0223
     12 C          65.9986   92.3143   16.5731 C.ar    1  UNL1        0.1006
     13 N          65.4370   92.0119   15.2155 N.ar    1  UNL1       -0.2248
     14 C          66.2260   92.3497   13.9853 C.ar    1  UNL1        0.1663
     15 N          65.9335   92.1713   12.5250 N.ar    1  UNL1       -0.2789
     16 C          67.9407   91.6026    9.5495 C.3     1  UNL1        0.0079
     17 C          67.2346   92.7218   10.2557 C.3     1  UNL1        0.0573
     18 C          66.6597   93.8614    9.4678 C.3     1  UNL1        0.0079
     19 C          60.9581   89.7609   10.1935 C.3     1  UNL1        0.0516
     20 CA         60.0373   88.9553   11.0613 C.3     1  UNL1        0.1102
     21 C          59.0328   89.6476   11.9343 C.2     1  UNL1        0.0684
     22 O          58.6672   91.0777   11.6682 O.co2   1  UNL1       -0.5475
     23 OXT        58.3942   88.9095   13.0733 O.co2   1  UNL1       -0.5475
     24 N          60.1208   87.4577   11.0561 N.pl3   1  UNL1       -0.3320
     25 H          59.8003   86.9441   11.8325 H       1  UNL1        0.1468
     26 C          60.6927   86.7426    9.8680 C.2     1  UNL1        0.0372
     27 C          60.4306   86.7617    8.3912 C.2     1  UNL1        0.0788
     28 BR         59.4880   87.5039    7.4908 Br      1  UNL1       -0.0451
     29 C          61.5014   85.7313    8.1878 C.2     1  UNL1        0.1842
     30 O          62.0733   85.0161    6.9997 O.2     1  UNL1       -0.2904
     31 C          61.7635   85.7121    9.6646 C.3     1  UNL1        0.0874
     32 C          62.7300   84.7217    9.0858 C.3     1  UNL1        0.0126
     33 C          63.6726   83.9795    9.9863 C.3     1  UNL1        0.0008
     34 C          63.6486   84.2277   11.4655 C.3     1  UNL1        0.0000
     35 C          62.6821   85.2181   12.0441 C.3     1  UNL1        0.0008
     36 C          61.7396   85.9603   11.1437 C.3     1  UNL1        0.0126
@<TRIPOS>UNITY_ATOM_ATTR
22 1
charge -1
@<TRIPOS>BOND
     1    16    17    1
     2    17    18    1
     3    17     7    1
     4     7     8   ar
     5     8     9   ar
     6     9    10   ar
     7    10    11   ar
     8    11    12   ar
     9    12    13   ar
    10    13    14   ar
    11    14    15   ar
    12    15     1    1
    13     1     2   ar
    14     2     3   ar
    15     3     4   ar
    16     4    19    1
    17    20    19    1
    18    20    24    1
    19    24    26    1
    20    26    27    2
    21    27    28    1
    22    27    29    1
    23    29    30    2
    24    29    31    1
    25    31    32    1
    26    32    33    1
    27    33    34    1
    28    34    35    1
    29    35    36    1
    30    20    21    1
    31    21    22   ar
    32    21    23   ar
    33     4     5   ar
    34     5     6   ar
    35    15     7   ar
    36     6     1   ar
    37    14     9   ar
    38    31    26    1
    39    36    31    1
    40    24    25    1
@<TRIPOS>MOLECULE
*****
 36 40 0 0 0
SMALL
GASTEIGER

@<TRIPOS>ATOM
      1 C          63.4923   88.5784   12.9528 C.ar    1  UNL1        0.0664
      2 C          64.0677   88.5522   14.3378 C.ar    1  UNL1        0.0173
      3 C          64.6508   89.8003   14.9314 C.ar    1  UNL1       -0.0027
      4 C          64.6585   91.0745   14.1401 C.ar    1  UNL1       -0.0201
      5 C          64.0831   91.1007   12.7551 C.ar    1  UNL1       -0.0027
      6 C          63.5000   89.8527   12.1615 C.ar    1  UNL1        0.0173
      7 C          61.8113   87.2690   11.3390 C.ar    1  UNL1        0.1248
      8 N          61.5452   85.8253   11.0308 N.ar    1  UNL1       -0.2290
      9 C          62.4787   84.9945   11.8605 C.ar    1  UNL1        0.1170
     10 C          62.6700   83.5111   11.9745 C.ar    1  UNL1        0.0238
     11 C          63.7043   82.9580   12.9094 C.ar    1  UNL1        0.0223
     12 C          64.5473   83.8882   13.7304 C.ar    1  UNL1        0.1006
     13 N          64.3560   85.3716   13.6165 N.ar    1  UNL1       -0.2248
     14 C          63.3217   85.9247   12.6815 C.ar    1  UNL1        0.1663
     15 N          62.9092   87.3304   12.3592 N.ar    1  UNL1       -0.2789
     16 C          60.0826   89.1988   11.5326 C.3     1  UNL1        0.0079
     17 C          61.1036   88.4447   10.7333 C.3     1  UNL1        0.0573
     18 C          61.4171   88.8665    9.3284 C.3     1  UNL1        0.0079
     19 C          65.2416   92.3225   14.7338 C.3     1  UNL1        0.0516
     20 CA         66.5026   92.9044   14.1670 C.3     1  UNL1        0.1102
     21 C          67.8361   92.4482   14.6808 C.2     1  UNL1        0.0684
     22 O          67.9891   91.0681   15.2479 O.co2   1  UNL1       -0.5475
     23 OXT        69.0164   93.3722   14.6272 O.co2   1  UNL1       -0.5475
     24 N          66.4302   93.9424   13.0866 N.pl3   1  UNL1       -0.3320
     25 H          66.0357   94.8241   13.2768 H       1  UNL1        0.1468
     26 C          66.9587   93.6369   11.7165 C.2     1  UNL1        0.0372
     27 C          67.7639   92.5238   11.1140 C.2     1  UNL1        0.0788
     28 BR         68.3739   91.2552   11.6322 Br      1  UNL1       -0.0451
     29 C          67.7063   93.2049    9.7788 C.2     1  UNL1        0.1842
     30 O          68.2349   92.8994    8.4087 O.2     1  UNL1       -0.2904
     31 C          66.9012   94.3180   10.3813 C.3     1  UNL1        0.0874
     32 C          67.0540   94.6877    8.9356 C.3     1  UNL1        0.0126
     33 C          66.4440   95.9563    8.4174 C.3     1  UNL1        0.0008
     34 C          65.6812   96.8552    9.3449 C.3     1  UNL1        0.0000
     35 C          65.5284   96.4855   10.7906 C.3     1  UNL1        0.0008
     36 C          66.1384   95.2168   11.3087 C.3     1  UNL1        0.0126
@<TRIPOS>UNITY_ATOM_ATTR
22 1
charge -1
@<TRIPOS>BOND
     1    16    17    1
     2    17    18    1
     3    17     7    1
     4     7     8   ar
     5     8     9   ar
     6     9    10   ar
     7    10    11   ar
     8    11    12   ar
     9    12    13   ar
    10    13    14   ar
    11    14    15   ar
    12    15     1    1
    13     1     2   ar
    14     2     3   ar
    15     3     4   ar
    16     4    19    1
    17    20    19    1
    18    20    24    1
    19    24    26    1
    20    26    27    2
    21    27    28    1
    22    27    29    1
    23    29    30    2
    24    29    31    1
    25    31    32    1
    26    32    33    1
    27    33    34    1
    28    34    35    1
    29    35    36    1
    30    20    21    1
    31    21    22   ar
    32    21    23   ar
    33     4     5   ar
    34     5     6   ar
    35    15     7   ar
    36     6     1   ar
    37    14     9   ar
    38    31    26    1
    39    36    31    1
    40    24    25    1
@<TRIPOS>MOLECULE
*****
 36 40 0 0 0
SMALL
GASTEIGER

@<TRIPOS>ATOM
      1 C          64.8234   91.0500   13.6264 C.ar    1  UNL1        0.0664
      2 C          64.3642   91.8318   12.4316 C.ar    1  UNL1        0.0173
      3 C          63.3866   91.2255   11.4689 C.ar    1  UNL1       -0.0027
      4 C          62.8682   89.8373   11.7010 C.ar    1  UNL1       -0.0201
      5 C          63.3274   89.0553   12.8959 C.ar    1  UNL1       -0.0027
      6 C          64.3049   89.6616   13.8586 C.ar    1  UNL1        0.0173
      7 C          65.4965   92.1107   15.9858 C.ar    1  UNL1        0.1248
      8 N          66.7620   92.6498   16.5840 N.ar    1  UNL1       -0.2290
      9 C          67.8485   92.5286   15.5570 C.ar    1  UNL1        0.1170
     10 C          69.3020   92.8980   15.5853 C.ar    1  UNL1        0.0238
     11 C          70.1616   92.6533   14.3806 C.ar    1  UNL1        0.0223
     12 C          69.5676   92.0392   13.1476 C.ar    1  UNL1        0.1006
     13 N          68.1141   91.6698   13.1194 N.ar    1  UNL1       -0.2248
     14 C          67.2546   91.9145   14.3241 C.ar    1  UNL1        0.1663
     15 N          65.8009   91.6562   14.5891 N.ar    1  UNL1       -0.2789
     16 C          63.4414   90.7266   16.7673 C.3     1  UNL1        0.0079
     17 C          64.1610   92.0387   16.6650 C.3     1  UNL1        0.0573
     18 C          63.5452   93.2787   17.2420 C.3     1  UNL1        0.0079
     19 C          61.8907   89.2310   10.7383 C.3     1  UNL1        0.0516
     20 CA         60.6646   88.5362   11.2522 C.3     1  UNL1        0.1102
     21 C          59.5605   89.3320   11.8828 C.2     1  UNL1        0.0684
     22 O          59.2722   90.7243   11.4051 O.co2   1  UNL1       -0.5475
     23 OXT        58.7446   88.7354   12.9911 O.co2   1  UNL1       -0.5475
     24 N          60.5428   87.0457   11.1355 N.pl3   1  UNL1       -0.3320
     25 H          60.0569   86.5362   11.8237 H       1  UNL1        0.1468
     26 C          61.1612   86.3316    9.9704 C.2     1  UNL1        0.0372
     27 C          60.9679   86.3627    8.4832 C.2     1  UNL1        0.0788
     28 BR         60.0760   87.1207    7.5452 Br      1  UNL1       -0.0451
     29 C          62.0358   85.3217    8.3226 C.2     1  UNL1        0.1842
     30 O          62.6543   84.6076    7.1575 O.2     1  UNL1       -0.2904
     31 C          62.2292   85.2907    9.8098 C.3     1  UNL1        0.0874
     32 C          63.2108   84.2933    9.2697 C.3     1  UNL1        0.0126
     33 C          64.1027   83.5353   10.2078 C.3     1  UNL1        0.0008
     34 C          64.0131   83.7746   11.6859 C.3     1  UNL1        0.0000
     35 C          63.0315   84.7721   12.2259 C.3     1  UNL1        0.0008
     36 C          62.1396   85.5301   11.2879 C.3     1  UNL1        0.0126
@<TRIPOS>UNITY_ATOM_ATTR
22 1
charge -1
@<TRIPOS>BOND
     1    16    17    1
     2    17    18    1
     3    17     7    1
     4     7     8   ar
     5     8     9   ar
     6     9    10   ar
     7    10    11   ar
     8    11    12   ar
     9    12    13   ar
    10    13    14   ar
    11    14    15   ar
    12    15     1    1
    13     1     2   ar
    14     2     3   ar
    15     3     4   ar
    16     4    19    1
    17    20    19    1
    18    20    24    1
    19    24    26    1
    20    26    27    2
    21    27    28    1
    22    27    29    1
    23    29    30    2
    24    29    31    1
    25    31    32    1
    26    32    33    1
    27    33    34    1
    28    34    35    1
    29    35    36    1
    30    20    21    1
    31    21    22   ar
    32    21    23   ar
    33     4     5   ar
    34     5     6   ar
    35    15     7   ar
    36     6     1   ar
    37    14     9   ar
    38    31    26    1
    39    36    31    1
    40    24    25    1
@<TRIPOS>MOLECULE
*****
 36 40 0 0 0
SMALL
GASTEIGER

@<TRIPOS>ATOM
      1 C          62.7188   85.2294   12.6962 C.ar    1  UNL1        0.0664
      2 C          63.5028   86.3786   13.2570 C.ar    1  UNL1        0.0173
      3 C          63.4710   87.7132   12.5730 C.ar    1  UNL1       -0.0027
      4 C          62.6551   87.8986   11.3281 C.ar    1  UNL1       -0.0201
      5 C          61.8710   86.7495   10.7672 C.ar    1  UNL1       -0.0027
      6 C          61.9028   85.4149   11.4512 C.ar    1  UNL1        0.0173
      7 C          62.7625   83.6637   14.8622 C.ar    1  UNL1        0.1248
      8 N          62.7954   82.1831   15.1002 N.ar    1  UNL1       -0.2290
      9 C          62.8038   81.4991   13.7652 C.ar    1  UNL1        0.1170
     10 C          62.8331   80.0497   13.3802 C.ar    1  UNL1        0.0238
     11 C          62.8347   79.6582   11.9323 C.ar    1  UNL1        0.0223
     12 C          62.8070   80.7161   10.8692 C.ar    1  UNL1        0.1006
     13 N          62.7778   82.1656   11.2542 N.ar    1  UNL1       -0.2248
     14 C          62.7761   82.5571   12.7022 C.ar    1  UNL1        0.1663
     15 N          62.7506   83.8948   13.3802 N.ar    1  UNL1       -0.2789
     16 C          64.0267   85.1676   16.5623 C.3     1  UNL1        0.0079
     17 C          62.7447   84.7266   15.9205 C.3     1  UNL1        0.0573
     18 C          61.4448   85.3485   16.3370 C.3     1  UNL1        0.0079
     19 C          62.6233   89.2332   10.6441 C.3     1  UNL1        0.0516
     20 CA         61.9059   90.3859   11.2818 C.3     1  UNL1        0.1102
     21 C          60.4212   90.3245   11.4867 C.2     1  UNL1        0.0684
     22 O          59.4989   90.9458   10.4801 O.co2   1  UNL1       -0.5475
     23 OXT        59.8589   89.6418   12.6982 O.co2   1  UNL1       -0.5475
     24 N          62.6732   91.5999   11.7146 N.pl3   1  UNL1       -0.3320
     25 H          62.3942   92.4933   11.4093 H       1  UNL1        0.1468
     26 C          63.8657   91.4527   12.6126 C.2     1  UNL1        0.0372
     27 C          64.1018   90.8731   13.9759 C.2     1  UNL1        0.0788
     28 BR         63.2432   90.2006   15.0057 Br      1  UNL1       -0.0451
     29 C          65.5520   91.2445   13.8827 C.2     1  UNL1        0.1842
     30 O          66.7445   91.0974   14.7807 O.2     1  UNL1       -0.2904
     31 C          65.3159   91.8242   12.5194 C.3     1  UNL1        0.0874
     32 C          66.7779   92.0330   12.7823 C.3     1  UNL1        0.0126
     33 C          67.6365   92.7055   11.7525 C.3     1  UNL1        0.0008
     34 C          67.0331   93.1693   10.4598 C.3     1  UNL1        0.0000
     35 C          65.5712   92.9605   10.1970 C.3     1  UNL1        0.0008
     36 C          64.7126   92.2880   11.2268 C.3     1  UNL1        0.0126
@<TRIPOS>UNITY_ATOM_ATTR
22 1
charge -1
@<TRIPOS>BOND
     1    16    17    1
     2    17    18    1
     3    17     7    1
     4     7     8   ar
     5     8     9   ar
     6     9    10   ar
     7    10    11   ar
     8    11    12   ar
     9    12    13   ar
    10    13    14   ar
    11    14    15   ar
    12    15     1    1
    13     1     2   ar
    14     2     3   ar
    15     3     4   ar
    16     4    19    1
    17    20    19    1
    18    20    24    1
    19    24    26    1
    20    26    27    2
    21    27    28    1
    22    27    29    1
    23    29    30    2
    24    29    31    1
    25    31    32    1
    26    32    33    1
    27    33    34    1
    28    34    35    1
    29    35    36    1
    30    20    21    1
    31    21    22   ar
    32    21    23   ar
    33     4     5   ar
    34     5     6   ar
    35    15     7   ar
    36     6     1   ar
    37    14     9   ar
    38    31    26    1
    39    36    31    1
    40    24    25    1
@<TRIPOS>MOLECULE
*****
 36 40 0 0 0
SMALL
GASTEIGER

@<TRIPOS>ATOM
      1 C          64.6416   91.4908   11.9921 C.ar    1  UNL1        0.0664
      2 C          64.1209   91.9043   10.6476 C.ar    1  UNL1        0.0173
      3 C          62.9071   91.2345   10.0749 C.ar    1  UNL1       -0.0027
      4 C          62.2139   90.1511   10.8468 C.ar    1  UNL1       -0.0201
      5 C          62.7345   89.7376   12.1914 C.ar    1  UNL1       -0.0027
      6 C          63.9484   90.4075   12.7641 C.ar    1  UNL1        0.0173
      7 C          66.9835   92.7619   11.7800 C.ar    1  UNL1        0.1248
      8 N          67.9795   93.3197   12.7530 N.ar    1  UNL1       -0.2290
      9 C          67.4671   93.0631   14.1393 C.ar    1  UNL1        0.1170
     10 C          68.0262   93.3892   15.4924 C.ar    1  UNL1        0.0238
     11 C          67.2726   92.9990   16.7292 C.ar    1  UNL1        0.0223
     12 C          65.9598   92.2827   16.6128 C.ar    1  UNL1        0.1006
     13 N          65.4006   91.9566   15.2597 N.ar    1  UNL1       -0.2248
     14 C          66.1543   92.3468   14.0229 C.ar    1  UNL1        0.1663
     15 N          65.8554   92.1607   12.5648 N.ar    1  UNL1       -0.2789
     16 C          66.4707   93.9232    9.5132 C.3     1  UNL1        0.0079
     17 C          67.0958   92.7989   10.2846 C.3     1  UNL1        0.0573
     18 C          67.8332   91.7117    9.5608 C.3     1  UNL1        0.0079
     19 C          61.0001   89.4813   10.2741 C.3     1  UNL1        0.0516
     20 CA         59.9863   88.8581   11.1873 C.3     1  UNL1        0.1102
     21 C          58.9753   89.7193   11.8846 C.2     1  UNL1        0.0684
     22 O          58.8457   91.1685   11.5201 O.co2   1  UNL1       -0.5475
     23 OXT        58.0940   89.1313   12.9464 O.co2   1  UNL1       -0.5475
     24 N          59.9836   87.3737   11.4031 N.pl3   1  UNL1       -0.3320
     25 H          59.2545   86.9517   11.9126 H       1  UNL1        0.1468
     26 C          61.0917   86.5323   10.8426 C.2     1  UNL1        0.0372
     27 C          62.3536   85.9366   11.3930 C.2     1  UNL1        0.0788
     28 BR         63.0300   85.9357   12.7318 Br      1  UNL1       -0.0451
     29 C          62.6588   85.3424   10.0501 C.2     1  UNL1        0.1842
     30 O          63.7669   84.5010    9.4896 O.2     1  UNL1       -0.2904
     31 C          61.3969   85.9380    9.4997 C.3     1  UNL1        0.0874
     32 C          62.0184   85.2098    8.3449 C.3     1  UNL1        0.0126
     33 C          61.3420   85.2108    7.0061 C.3     1  UNL1        0.0008
     34 C          60.0440   85.9400    6.8220 C.3     1  UNL1        0.0000
     35 C          59.4226   86.6681    7.9768 C.3     1  UNL1        0.0008
     36 C          60.0991   86.6672    9.3156 C.3     1  UNL1        0.0126
@<TRIPOS>UNITY_ATOM_ATTR
22 1
charge -1
@<TRIPOS>BOND
     1    16    17    1
     2    17    18    1
     3    17     7    1
     4     7     8   ar
     5     8     9   ar
     6     9    10   ar
     7    10    11   ar
     8    11    12   ar
     9    12    13   ar
    10    13    14   ar
    11    14    15   ar
    12    15     1    1
    13     1     2   ar
    14     2     3   ar
    15     3     4   ar
    16     4    19    1
    17    20    19    1
    18    20    24    1
    19    24    26    1
    20    26    27    2
    21    27    28    1
    22    27    29    1
    23    29    30    2
    24    29    31    1
    25    31    32    1
    26    32    33    1
    27    33    34    1
    28    34    35    1
    29    35    36    1
    30    20    21    1
    31    21    22   ar
    32    21    23   ar
    33     4     5   ar
    34     5     6   ar
    35    15     7   ar
    36     6     1   ar
    37    14     9   ar
    38    31    26    1
    39    36    31    1
    40    24    25    1
@<TRIPOS>MOLECULE
*****
 36 40 0 0 0
SMALL
GASTEIGER

@<TRIPOS>ATOM
      1 C          62.7444   87.6526   11.7032 C.ar    1  UNL1        0.0664
      2 C          63.3762   86.8602   12.8089 C.ar    1  UNL1        0.0173
      3 C          64.1194   87.5636   13.9057 C.ar    1  UNL1       -0.0027
      4 C          64.2307   89.0595   13.8967 C.ar    1  UNL1       -0.0201
      5 C          63.5989   89.8519   12.7909 C.ar    1  UNL1       -0.0027
      6 C          62.8557   89.1485   11.6941 C.ar    1  UNL1        0.0173
      7 C          62.0441   85.4784   10.3147 C.ar    1  UNL1        0.1248
      8 N          61.1540   85.2133    9.1368 N.ar    1  UNL1       -0.2290
      9 C          60.5610   86.5202    8.7005 C.ar    1  UNL1        0.1170
     10 C          59.6119   86.8720    7.5935 C.ar    1  UNL1        0.0238
     11 C          59.1864   88.2965    7.3948 C.ar    1  UNL1        0.0223
     12 C          59.7100   89.3693    8.3031 C.ar    1  UNL1        0.1006
     13 N          60.6591   89.0176    9.4101 N.ar    1  UNL1       -0.2248
     14 C          61.0846   87.5930    9.6088 C.ar    1  UNL1        0.1663
     15 N          62.0012   86.9491   10.6064 N.ar    1  UNL1       -0.2789
     16 C          62.4576   84.0954   12.4749 C.3     1  UNL1        0.0079
     17 C          62.8378   84.4528   11.0686 C.3     1  UNL1        0.0573
     18 C          64.0116   83.7847   10.4162 C.3     1  UNL1        0.0079
     19 C          64.9739   89.7629   14.9935 C.3     1  UNL1        0.0516
     20 CA         64.5991   91.1645   15.3743 C.3     1  UNL1        0.1102
     21 C          63.5525   91.4025   16.4222 C.2     1  UNL1        0.0684
     22 O          62.7565   90.2516   16.9621 O.co2   1  UNL1       -0.5475
     23 OXT        63.3021   92.7915   16.9300 O.co2   1  UNL1       -0.5475
     24 N          65.2709   92.3280   14.7072 N.pl3   1  UNL1       -0.3320
     25 H          64.7702   93.1606   14.5482 H       1  UNL1        0.1468
     26 C          66.7057   92.2229   14.2824 C.2     1  UNL1        0.0372
     27 C          68.0172   92.0927   14.9987 C.2     1  UNL1        0.0788
     28 BR         68.4372   92.0138   16.4366 Br      1  UNL1       -0.0451
     29 C          68.7347   92.0742   13.6817 C.2     1  UNL1        0.1842
     30 O          70.1695   91.9691   13.2568 O.2     1  UNL1       -0.2904
     31 C          67.4232   92.2044   12.9653 C.3     1  UNL1        0.0874
     32 C          68.4558   92.1528   11.8785 C.3     1  UNL1        0.0126
     33 C          68.0358   92.2317   10.4407 C.3     1  UNL1        0.0008
     34 C          66.5833   92.3622   10.0896 C.3     1  UNL1        0.0000
     35 C          65.5508   92.4138   11.1764 C.3     1  UNL1        0.0008
     36 C          65.9707   92.3348   12.6142 C.3     1  UNL1        0.0126
@<TRIPOS>UNITY_ATOM_ATTR
22 1
charge -1
@<TRIPOS>BOND
     1    16    17    1
     2    17    18    1
     3    17     7    1
     4     7     8   ar
     5     8     9   ar
     6     9    10   ar
     7    10    11   ar
     8    11    12   ar
     9    12    13   ar
    10    13    14   ar
    11    14    15   ar
    12    15     1    1
    13     1     2   ar
    14     2     3   ar
    15     3     4   ar
    16     4    19    1
    17    20    19    1
    18    20    24    1
    19    24    26    1
    20    26    27    2
    21    27    28    1
    22    27    29    1
    23    29    30    2
    24    29    31    1
    25    31    32    1
    26    32    33    1
    27    33    34    1
    28    34    35    1
    29    35    36    1
    30    20    21    1
    31    21    22   ar
    32    21    23   ar
    33     4     5   ar
    34     5     6   ar
    35    15     7   ar
    36     6     1   ar
    37    14     9   ar
    38    31    26    1
    39    36    31    1
    40    24    25    1
@<TRIPOS>MOLECULE
*****
 36 40 0 0 0
SMALL
GASTEIGER

@<TRIPOS>ATOM
      1 C          62.2615   88.3271   11.5488 C.ar    1  UNL1        0.0664
      2 C          62.9823   87.3717   12.4530 C.ar    1  UNL1        0.0173
      3 C          63.9073   87.8942   13.5119 C.ar    1  UNL1       -0.0027
      4 C          64.1115   89.3721   13.6668 C.ar    1  UNL1       -0.0201
      5 C          63.3907   90.3276   12.7626 C.ar    1  UNL1       -0.0027
      6 C          62.4657   89.8051   11.7037 C.ar    1  UNL1        0.0173
      7 C          59.8971   88.1865   10.3100 C.ar    1  UNL1        0.1248
      8 N          59.3595   87.4265    9.1338 N.ar    1  UNL1       -0.2290
      9 C          60.4667   86.5749    8.5868 C.ar    1  UNL1        0.1170
     10 C          60.5200   85.6169    7.4339 C.ar    1  UNL1        0.0238
     11 C          61.7953   84.8926    7.1191 C.ar    1  UNL1        0.0223
     12 C          63.0171   85.1264    7.9572 C.ar    1  UNL1        0.1006
     13 N          62.9637   86.0844    9.1101 N.ar    1  UNL1       -0.2248
     14 C          61.6885   86.8087    9.4249 C.ar    1  UNL1        0.1663
     15 N          61.3365   87.8047   10.4899 N.ar    1  UNL1       -0.2789
     16 C          58.3026   88.6608   12.3056 C.3     1  UNL1        0.0079
     17 C          59.1300   89.1578   11.1574 C.3     1  UNL1        0.0573
     18 C          59.1903   90.6260   10.8567 C.3     1  UNL1        0.0079
     19 C          65.0366   89.8945   14.7257 C.3     1  UNL1        0.0516
     20 CA         64.8164   91.2597   15.3069 C.3     1  UNL1        0.1102
     21 C          63.8641   91.4430   16.4513 C.2     1  UNL1        0.0684
     22 O          63.6514   92.8065   17.0391 O.co2   1  UNL1       -0.5475
     23 OXT        63.1246   90.2626   17.0079 O.co2   1  UNL1       -0.5475
     24 N          65.5485   92.4416   14.7437 N.pl3   1  UNL1       -0.3320
     25 H          65.0943   93.3119   14.6686 H       1  UNL1        0.1468
     26 C          66.9725   92.2975   14.2950 C.2     1  UNL1        0.0372
     27 C          68.2936   92.1481   14.9896 C.2     1  UNL1        0.0788
     28 BR         68.7378   92.0809   16.4208 Br      1  UNL1       -0.0451
     29 C          68.9864   92.0937   13.6604 C.2     1  UNL1        0.1842
     30 O          70.4104   91.9497   13.2116 O.2     1  UNL1       -0.2904
     31 C          67.6653   92.2432   12.9657 C.3     1  UNL1        0.0874
     32 C          68.6766   92.1520   11.8615 C.3     1  UNL1        0.0126
     33 C          68.2324   92.2192   10.4304 C.3     1  UNL1        0.0008
     34 C          66.7770   92.3776   10.1033 C.3     1  UNL1        0.0000
     35 C          65.7659   92.4688   11.2076 C.3     1  UNL1        0.0008
     36 C          66.2100   92.4016   12.6387 C.3     1  UNL1        0.0126
@<TRIPOS>UNITY_ATOM_ATTR
22 1
charge -1
@<TRIPOS>BOND
     1    16    17    1
     2    17    18    1
     3    17     7    1
     4     7     8   ar
     5     8     9   ar
     6     9    10   ar
     7    10    11   ar
     8    11    12   ar
     9    12    13   ar
    10    13    14   ar
    11    14    15   ar
    12    15     1    1
    13     1     2   ar
    14     2     3   ar
    15     3     4   ar
    16     4    19    1
    17    20    19    1
    18    20    24    1
    19    24    26    1
    20    26    27    2
    21    27    28    1
    22    27    29    1
    23    29    30    2
    24    29    31    1
    25    31    32    1
    26    32    33    1
    27    33    34    1
    28    34    35    1
    29    35    36    1
    30    20    21    1
    31    21    22   ar
    32    21    23   ar
    33     4     5   ar
    34     5     6   ar
    35    15     7   ar
    36     6     1   ar
    37    14     9   ar
    38    31    26    1
    39    36    31    1
    40    24    25    1
@<TRIPOS>MOLECULE
*****
 36 40 0 0 0
SMALL
GASTEIGER

@<TRIPOS>ATOM
      1 C          63.5779   84.9979   12.8854 C.ar    1  UNL1        0.0664
      2 C          64.4020   84.9335   14.1371 C.ar    1  UNL1        0.0173
      3 C          64.7941   86.1977   14.8428 C.ar    1  UNL1       -0.0027
      4 C          64.3621   87.5264   14.2969 C.ar    1  UNL1       -0.0201
      5 C          63.5380   87.5908   13.0452 C.ar    1  UNL1       -0.0027
      6 C          63.1459   86.3266   12.3395 C.ar    1  UNL1        0.0173
      7 C          62.7648   83.6194   10.7446 C.ar    1  UNL1        0.1248
      8 N          62.4647   82.1769   10.4631 N.ar    1  UNL1       -0.2290
      9 C          62.7003   81.3997   11.7243 C.ar    1  UNL1        0.1170
     10 C          62.5665   79.9403   12.0437 C.ar    1  UNL1        0.0238
     11 C          62.8785   79.4430   13.4241 C.ar    1  UNL1        0.0223
     12 C          63.3242   80.4052   14.4850 C.ar    1  UNL1        0.1006
     13 N          63.4579   81.8647   14.1656 N.ar    1  UNL1       -0.2248
     14 C          63.1460   82.3619   12.7852 C.ar    1  UNL1        0.1663
     15 N          63.1858   83.7337   12.1797 N.ar    1  UNL1       -0.2789
     16 C          61.6111   85.8045    9.9420 C.3     1  UNL1        0.0079
     17 C          62.6619   84.7491    9.7632 C.3     1  UNL1        0.0573
     18 C          63.6097   84.8234    8.6030 C.3     1  UNL1        0.0079
     19 C          64.7542   88.7906   15.0026 C.3     1  UNL1        0.0516
     20 CA         63.6997   89.6721   15.6035 C.3     1  UNL1        0.1102
     21 C          62.6786   89.0911   16.5361 C.2     1  UNL1        0.0684
     22 O          61.2180   89.3286   16.2911 O.co2   1  UNL1       -0.5475
     23 OXT        63.1182   88.2726   17.7137 O.co2   1  UNL1       -0.5475
     24 N          63.6665   91.1346   15.2717 N.pl3   1  UNL1       -0.3320
     25 H          62.9402   91.7016   15.6185 H       1  UNL1        0.1468
     26 C          64.7397   91.7330   14.4114 C.2     1  UNL1        0.0372
     27 C          66.0657   92.3851   14.6698 C.2     1  UNL1        0.0788
     28 BR         66.8676   92.7087   15.8954 Br      1  UNL1       -0.0451
     29 C          66.2575   92.5795   13.1949 C.2     1  UNL1        0.1842
     30 O          67.3307   93.1779   12.3347 O.2     1  UNL1       -0.2904
     31 C          64.9315   91.9274   12.9365 C.3     1  UNL1        0.0874
     32 C          65.4600   92.2839   11.5787 C.3     1  UNL1        0.0126
     33 C          64.6581   91.9603   10.3531 C.3     1  UNL1        0.0008
     34 C          63.3276   91.2802   10.4852 C.3     1  UNL1        0.0000
     35 C          62.7992   90.9237   11.8430 C.3     1  UNL1        0.0008
     36 C          63.6011   91.2473   13.0686 C.3     1  UNL1        0.0126
@<TRIPOS>UNITY_ATOM_ATTR
22 1
charge -1
@<TRIPOS>BOND
     1    16    17    1
     2    17    18    1
     3    17     7    1
     4     7     8   ar
     5     8     9   ar
     6     9    10   ar
     7    10    11   ar
     8    11    12   ar
     9    12    13   ar
    10    13    14   ar
    11    14    15   ar
    12    15     1    1
    13     1     2   ar
    14     2     3   ar
    15     3     4   ar
    16     4    19    1
    17    20    19    1
    18    20    24    1
    19    24    26    1
    20    26    27    2
    21    27    28    1
    22    27    29    1
    23    29    30    2
    24    29    31    1
    25    31    32    1
    26    32    33    1
    27    33    34    1
    28    34    35    1
    29    35    36    1
    30    20    21    1
    31    21    22   ar
    32    21    23   ar
    33     4     5   ar
    34     5     6   ar
    35    15     7   ar
    36     6     1   ar
    37    14     9   ar
    38    31    26    1
    39    36    31    1
    40    24    25    1
@<TRIPOS>MOLECULE
*****
 36 40 0 0 0
SMALL
GASTEIGER

@<TRIPOS>ATOM
      1 C          63.3796   88.0561   12.6352 C.ar    1  UNL1        0.0664
      2 C          64.1395   88.4669   13.8614 C.ar    1  UNL1        0.0173
      3 C          64.5390   89.9002   14.0512 C.ar    1  UNL1       -0.0027
      4 C          64.1786   90.9228   13.0147 C.ar    1  UNL1       -0.0201
      5 C          63.4187   90.5121   11.7884 C.ar    1  UNL1       -0.0027
      6 C          63.0192   89.0788   11.5986 C.ar    1  UNL1        0.0173
      7 C          62.0961   86.0907   11.3567 C.ar    1  UNL1        0.1248
      8 N          61.9642   84.6090   11.5495 N.ar    1  UNL1       -0.2290
      9 C          62.7667   84.2254   12.7573 C.ar    1  UNL1        0.1170
     10 C          63.0068   82.9036   13.4244 C.ar    1  UNL1        0.0238
     11 C          63.8748   82.8264   14.6453 C.ar    1  UNL1        0.0223
     12 C          64.5027   84.0710   15.1990 C.ar    1  UNL1        0.1006
     13 N          64.2626   85.3928   14.5319 N.ar    1  UNL1       -0.2248
     14 C          63.3946   85.4700   13.3110 C.ar    1  UNL1        0.1663
     15 N          62.9801   86.6228   12.4454 N.ar    1  UNL1       -0.2789
     16 C          60.2334   87.7165   10.5585 C.3     1  UNL1        0.0079
     17 C          61.4563   86.8984   10.2666 C.3     1  UNL1        0.0573
     18 C          62.0394   86.8881    8.8847 C.3     1  UNL1        0.0079
     19 C          64.5781   92.3561   13.2045 C.3     1  UNL1        0.0516
     20 CA         65.9683   92.6939   13.6552 C.3     1  UNL1        0.1102
     21 C          66.2520   92.9134   15.1117 C.2     1  UNL1        0.0684
     22 O          67.5690   93.4889   15.5409 O.co2   1  UNL1       -0.5475
     23 OXT        65.2185   92.5576   16.1390 O.co2   1  UNL1       -0.5475
     24 N          67.0748   92.8120   12.6494 N.pl3   1  UNL1       -0.3320
     25 H          67.8443   92.1993   12.6899 H       1  UNL1        0.1468
     26 C          67.0089   93.8638   11.5820 C.2     1  UNL1        0.0372
     27 C          66.4885   95.2688   11.5080 C.2     1  UNL1        0.0788
     28 BR         65.8185   96.2038   12.4707 Br      1  UNL1       -0.0451
     29 C          66.9157   95.3514   10.0725 C.2     1  UNL1        0.1842
     30 O          66.8498   96.4031    9.0051 O.2     1  UNL1       -0.2904
     31 C          67.4361   93.9464   10.1466 C.3     1  UNL1        0.0874
     32 C          67.7141   94.3899    8.7408 C.3     1  UNL1        0.0126
     33 C          68.3841   93.4549    7.7781 C.3     1  UNL1        0.0008
     34 C          68.7763   92.0764    8.2211 C.3     1  UNL1        0.0000
     35 C          68.4983   91.6330    9.6268 C.3     1  UNL1        0.0008
     36 C          67.8282   92.5680   10.5895 C.3     1  UNL1        0.0126
@<TRIPOS>UNITY_ATOM_ATTR
22 1
charge -1
@<TRIPOS>BOND
     1    16    17    1
     2    17    18    1
     3    17     7    1
     4     7     8   ar
     5     8     9   ar
     6     9    10   ar
     7    10    11   ar
     8    11    12   ar
     9    12    13   ar
    10    13    14   ar
    11    14    15   ar
    12    15     1    1
    13     1     2   ar
    14     2     3   ar
    15     3     4   ar
    16     4    19    1
    17    20    19    1
    18    20    24    1
    19    24    26    1
    20    26    27    2
    21    27    28    1
    22    27    29    1
    23    29    30    2
    24    29    31    1
    25    31    32    1
    26    32    33    1
    27    33    34    1
    28    34    35    1
    29    35    36    1
    30    20    21    1
    31    21    22   ar
    32    21    23   ar
    33     4     5   ar
    34     5     6   ar
    35    15     7   ar
    36     6     1   ar
    37    14     9   ar
    38    31    26    1
    39    36    31    1
    40    24    25    1
