@<TRIPOS>MOLECULE
*****
 20 22 0 0 0
SMALL
GASTEIGER

@<TRIPOS>ATOM
      1 C          65.6583   92.5450   11.9357 C.2     1  UNL1        0.1223
      2 C          65.6314   91.9551   13.3145 C.2     1  UNL1        0.0343
      3 C          64.5843   90.9442   13.6775 C.2     1  UNL1        0.0232
      4 C          63.5641   90.5233   12.6617 C.2     1  UNL1        0.0975
      5 N          62.4206   89.5549   12.7293 N.2     1  UNL1       -0.2200
      6 C          61.7408   89.5462   11.3922 C.2     1  UNL1        0.1901
      7 N          62.4641   90.5093   10.4983 N.2     1  UNL1       -0.2236
      8 C          63.5910   91.1132   11.2829 C.2     1  UNL1        0.0863
      9 C          64.6381   92.1240   10.9198 C.3     1  UNL1        0.1112
     10 C          66.3175   94.9850   11.3345 C.3     1  UNL1        0.2520
     11 O          66.7054   93.5558   11.5726 O.2     1  UNL1       -0.4753
     12 S          60.5472   88.7195   11.0154 S.3     1  UNL1       -0.0709
     13 C          60.6306   87.7638    9.8623 C.3     1  UNL1        0.0913
     14 C          61.5404   86.5737    9.9389 C.ar    1  UNL1       -0.0108
     15 C          62.2947   86.1267    8.7218 C.ar    1  UNL1       -0.0025
     16 C          63.2045   84.9366    8.7985 C.ar    1  UNL1        0.0111
     17 C          63.3600   84.1934   10.0922 C.ar    1  UNL1        0.0577
     18 CL         64.2697   83.0033   10.1688 Cl      1  UNL1       -0.0822
     19 C          62.6057   84.6405   11.3092 C.ar    1  UNL1        0.0111
     20 C          61.6959   85.8306   11.2326 C.ar    1  UNL1       -0.0025
@<TRIPOS>BOND
     1    10    11    1
     2    11     1    1
     3     1     2    2
     4     2     3    1
     5     3     4    2
     6     4     5    1
     7     5     6    2
     8     6    12    1
     9    12    13    1
    10    13    14    1
    11    14    15   ar
    12    15    16   ar
    13    16    17   ar
    14    17    18    1
    15    17    19   ar
    16    19    20   ar
    17     6     7    1
    18     7     8    2
    19     8     9    1
    20     9     1    1
    21     8     4    1
    22    20    14   ar
@<TRIPOS>MOLECULE
*****
 20 22 0 0 0
SMALL
GASTEIGER

@<TRIPOS>ATOM
      1 C          65.2822   91.8081   13.2611 C.2     1  UNL1        0.1223
      2 C          65.3442   92.4138   11.8903 C.2     1  UNL1        0.0343
      3 C          64.3602   91.9930   10.8392 C.2     1  UNL1        0.0232
      4 C          63.3142   90.9666   11.1590 C.2     1  UNL1        0.0975
      5 N          62.2187   90.3591   10.3339 N.2     1  UNL1       -0.2200
      6 C          61.4797   89.3780   11.1948 C.2     1  UNL1        0.1901
      7 N          62.1184   89.3790   12.5520 N.2     1  UNL1       -0.2236
      8 C          63.2522   90.3609   12.5298 C.2     1  UNL1        0.0863
      9 C          64.2362   90.7816   13.5809 C.3     1  UNL1        0.1112
     10 C          66.7497   93.6478   14.3619 C.3     1  UNL1        0.2520
     11 O          66.2662   92.2288   14.3122 O.2     1  UNL1       -0.4753
     12 S          60.3076   88.5424   10.7725 S.3     1  UNL1       -0.0709
     13 C          60.4628   87.5339    9.6731 C.3     1  UNL1        0.0913
     14 C          61.4499   86.4136    9.8168 C.ar    1  UNL1       -0.0108
     15 C          61.6523   85.7590   11.1511 C.ar    1  UNL1       -0.0025
     16 C          62.6394   84.6387   11.2949 C.ar    1  UNL1        0.0111
     17 C          63.4241   84.1731   10.1042 C.ar    1  UNL1        0.0577
     18 CL         64.4111   83.0528   10.2479 Cl      1  UNL1       -0.0822
     19 C          63.2216   84.8278    8.7699 C.ar    1  UNL1        0.0111
     20 C          62.2345   85.9481    8.6262 C.ar    1  UNL1       -0.0025
@<TRIPOS>BOND
     1    10    11    1
     2    11     1    1
     3     1     2    2
     4     2     3    1
     5     3     4    2
     6     4     5    1
     7     5     6    2
     8     6    12    1
     9    12    13    1
    10    13    14    1
    11    14    15   ar
    12    15    16   ar
    13    16    17   ar
    14    17    18    1
    15    17    19   ar
    16    19    20   ar
    17     6     7    1
    18     7     8    2
    19     8     9    1
    20     9     1    1
    21     8     4    1
    22    20    14   ar
@<TRIPOS>MOLECULE
*****
 20 22 0 0 0
SMALL
GASTEIGER

@<TRIPOS>ATOM
      1 C          65.9086   91.9142   13.4729 C.2     1  UNL1        0.1223
      2 C          65.6206   90.9046   14.5442 C.2     1  UNL1        0.0343
      3 C          64.4238   90.0079   14.4275 C.2     1  UNL1        0.0232
      4 C          63.5150   90.1208   13.2395 C.2     1  UNL1        0.0975
      5 N          62.2699   89.3785   12.8542 N.2     1  UNL1       -0.2200
      6 C          61.7883   89.9293   11.5447 C.2     1  UNL1        0.1901
      7 N          62.7358   91.0120   11.1207 N.2     1  UNL1       -0.2236
      8 C          63.8030   91.1304   12.1682 C.2     1  UNL1        0.0863
      9 C          64.9998   92.0271   12.2849 C.3     1  UNL1        0.1112
     10 C          67.3962   93.5088   14.8850 C.3     1  UNL1        0.2520
     11 O          67.1054   92.8109   13.5895 O.2     1  UNL1       -0.4753
     12 S          60.5726   89.4767   10.7914 S.3     1  UNL1       -0.0709
     13 C          60.1957   88.0249   10.7784 C.3     1  UNL1        0.0913
     14 C          60.6568   87.1404    9.6581 C.ar    1  UNL1       -0.0108
     15 C          62.0680   86.6325    9.6356 C.ar    1  UNL1       -0.0025
     16 C          62.5290   85.7480    8.5153 C.ar    1  UNL1        0.0111
     17 C          61.5788   85.3714    7.4174 C.ar    1  UNL1        0.0577
     18 CL         62.0399   84.4869    6.2971 Cl      1  UNL1       -0.0822
     19 C          60.1676   85.8793    7.4399 C.ar    1  UNL1        0.0111
     20 C          59.7066   86.7638    8.5603 C.ar    1  UNL1       -0.0025
@<TRIPOS>BOND
     1    10    11    1
     2    11     1    1
     3     1     2    2
     4     2     3    1
     5     3     4    2
     6     4     5    1
     7     5     6    2
     8     6    12    1
     9    12    13    1
    10    13    14    1
    11    14    15   ar
    12    15    16   ar
    13    16    17   ar
    14    17    18    1
    15    17    19   ar
    16    19    20   ar
    17     6     7    1
    18     7     8    2
    19     8     9    1
    20     9     1    1
    21     8     4    1
    22    20    14   ar
@<TRIPOS>MOLECULE
*****
 20 22 0 0 0
SMALL
GASTEIGER

@<TRIPOS>ATOM
      1 C          61.3431   86.4575    8.9325 C.2     1  UNL1        0.1223
      2 C          62.3644   85.5757    8.2774 C.2     1  UNL1        0.0343
      3 C          63.2019   84.6511    9.1104 C.2     1  UNL1        0.0232
      4 C          63.0179   84.6083   10.5984 C.2     1  UNL1        0.0975
      5 N          63.6923   83.8046   11.6705 N.2     1  UNL1       -0.2200
      6 C          63.0878   84.1898   12.9881 C.2     1  UNL1        0.1901
      7 N          62.0397   85.2315   12.7305 N.2     1  UNL1       -0.2236
      8 C          61.9966   85.4901   11.2535 C.2     1  UNL1        0.0863
      9 C          61.1592   86.4148   10.4205 C.3     1  UNL1        0.1112
     10 C          59.0806   87.0303    7.7911 C.3     1  UNL1        0.2520
     11 O          60.5057   87.3821    8.0995 O.2     1  UNL1       -0.4753
     12 S          63.4651   83.6312   14.3282 S.3     1  UNL1       -0.0709
     13 C          64.3800   84.4034   15.2319 C.3     1  UNL1        0.0913
     14 C          64.0639   85.8278   15.5798 C.ar    1  UNL1       -0.0108
     15 C          64.5540   86.9408   14.7017 C.ar    1  UNL1       -0.0025
     16 C          64.2379   88.3652   15.0495 C.ar    1  UNL1        0.0111
     17 C          63.4316   88.6767   16.2755 C.ar    1  UNL1        0.0577
     18 CL         63.1155   90.1011   16.6233 Cl      1  UNL1       -0.0822
     19 C          62.9415   87.5637   17.1535 C.ar    1  UNL1        0.0111
     20 C          63.2576   86.1392   16.8057 C.ar    1  UNL1       -0.0025
@<TRIPOS>BOND
     1    10    11    1
     2    11     1    1
     3     1     2    2
     4     2     3    1
     5     3     4    2
     6     4     5    1
     7     5     6    2
     8     6    12    1
     9    12    13    1
    10    13    14    1
    11    14    15   ar
    12    15    16   ar
    13    16    17   ar
    14    17    18    1
    15    17    19   ar
    16    19    20   ar
    17     6     7    1
    18     7     8    2
    19     8     9    1
    20     9     1    1
    21     8     4    1
    22    20    14   ar
@<TRIPOS>MOLECULE
*****
 20 22 0 0 0
SMALL
GASTEIGER

@<TRIPOS>ATOM
      1 C          64.1865   90.5295   15.1589 C.2     1  UNL1        0.1223
      2 C          63.4220   90.3353   16.4348 C.2     1  UNL1        0.0343
      3 C          63.0698   88.9518   16.8949 C.2     1  UNL1        0.0232
      4 C          63.4821   87.7624   16.0792 C.2     1  UNL1        0.0975
      5 N          63.2788   86.2896   16.2782 N.2     1  UNL1       -0.2200
      6 C          63.9177   85.5735   15.1254 C.2     1  UNL1        0.1901
      7 N          64.5158   86.6037   14.2138 N.2     1  UNL1       -0.2236
      8 C          64.2466   87.9565   14.8034 C.2     1  UNL1        0.0863
      9 C          64.5988   89.3401   14.3432 C.3     1  UNL1        0.1112
     10 C          65.6594   92.1162   13.7226 C.3     1  UNL1        0.2520
     11 O          64.5387   91.9130   14.6988 O.2     1  UNL1       -0.4753
     12 S          63.9524   84.0880   14.9201 S.3     1  UNL1       -0.0709
     13 C          63.0202   83.4448   13.9366 C.3     1  UNL1        0.0913
     14 C          63.0543   83.8529   12.4936 C.ar    1  UNL1       -0.0108
     15 C          62.2450   85.0264   12.0267 C.ar    1  UNL1       -0.0025
     16 C          62.2791   85.4345   10.5837 C.ar    1  UNL1        0.0111
     17 C          63.1225   84.6690    9.6075 C.ar    1  UNL1        0.0577
     18 CL         63.1566   85.0771    8.1645 Cl      1  UNL1       -0.0822
     19 C          63.9317   83.4955   10.0744 C.ar    1  UNL1        0.0111
     20 C          63.8976   83.0874   11.5175 C.ar    1  UNL1       -0.0025
@<TRIPOS>BOND
     1    10    11    1
     2    11     1    1
     3     1     2    2
     4     2     3    1
     5     3     4    2
     6     4     5    1
     7     5     6    2
     8     6    12    1
     9    12    13    1
    10    13    14    1
    11    14    15   ar
    12    15    16   ar
    13    16    17   ar
    14    17    18    1
    15    17    19   ar
    16    19    20   ar
    17     6     7    1
    18     7     8    2
    19     8     9    1
    20     9     1    1
    21     8     4    1
    22    20    14   ar
@<TRIPOS>MOLECULE
*****
 20 22 0 0 0
SMALL
GASTEIGER

@<TRIPOS>ATOM
      1 C          63.8427   83.0451   11.7592 C.2     1  UNL1        0.1223
      2 C          64.1261   83.0650   10.2864 C.2     1  UNL1        0.0343
      3 C          63.5395   84.1433    9.4242 C.2     1  UNL1        0.0232
      4 C          62.6694   85.2016   10.0349 C.2     1  UNL1        0.0975
      5 N          61.9571   86.3809    9.4418 N.2     1  UNL1       -0.2200
      6 C          61.2335   87.0899   10.5480 C.2     1  UNL1        0.1901
      7 N          61.4986   86.3487   11.8249 N.2     1  UNL1       -0.2236
      8 C          62.3860   85.1816   11.5077 C.2     1  UNL1        0.0863
      9 C          62.9727   84.1034   12.3699 C.3     1  UNL1        0.1112
     10 C          63.5298   81.0865   13.4373 C.3     1  UNL1        0.2520
     11 O          64.4293   81.9669   12.6213 O.2     1  UNL1       -0.4753
     12 S          60.3925   88.3234   10.4029 S.3     1  UNL1       -0.0709
     13 C          61.0182   89.6084    9.9476 C.3     1  UNL1        0.0913
     14 C          62.1338   90.2217   10.7409 C.ar    1  UNL1       -0.0108
     15 C          62.2892   89.8915   12.1958 C.ar    1  UNL1       -0.0025
     16 C          63.4048   90.5048   12.9890 C.ar    1  UNL1        0.0111
     17 C          64.3650   91.4484   12.3274 C.ar    1  UNL1        0.0577
     18 CL         65.4806   92.0617   13.1207 Cl      1  UNL1       -0.0822
     19 C          64.2095   91.7787   10.8725 C.ar    1  UNL1        0.0111
     20 C          63.0939   91.1653   10.0792 C.ar    1  UNL1       -0.0025
@<TRIPOS>BOND
     1    10    11    1
     2    11     1    1
     3     1     2    2
     4     2     3    1
     5     3     4    2
     6     4     5    1
     7     5     6    2
     8     6    12    1
     9    12    13    1
    10    13    14    1
    11    14    15   ar
    12    15    16   ar
    13    16    17   ar
    14    17    18    1
    15    17    19   ar
    16    19    20   ar
    17     6     7    1
    18     7     8    2
    19     8     9    1
    20     9     1    1
    21     8     4    1
    22    20    14   ar
@<TRIPOS>MOLECULE
*****
 20 22 0 0 0
SMALL
GASTEIGER

@<TRIPOS>ATOM
      1 C          64.2184   90.6213   14.8309 C.2     1  UNL1        0.1223
      2 C          63.5494   90.6814   16.1721 C.2     1  UNL1        0.0343
      3 C          63.1643   89.4138   16.8755 C.2     1  UNL1        0.0232
      4 C          63.4483   88.0861   16.2378 C.2     1  UNL1        0.0975
      5 N          63.1860   86.6796   16.6884 N.2     1  UNL1       -0.2200
      6 C          63.6930   85.7503   15.6256 C.2     1  UNL1        0.1901
      7 N          64.2686   86.5824   14.5183 N.2     1  UNL1       -0.2236
      8 C          64.1173   88.0261   14.8967 C.2     1  UNL1        0.0863
      9 C          64.5024   89.2937   14.1932 C.3     1  UNL1        0.1112
     10 C          65.9990   92.0630   13.6057 C.3     1  UNL1        0.2520
     11 O          64.6035   91.8890   14.1274 O.2     1  UNL1       -0.4753
     12 S          63.6346   84.2519   15.6636 S.3     1  UNL1       -0.0709
     13 C          62.4530   83.5324   15.0837 C.3     1  UNL1        0.0913
     14 C          62.6084   82.7245   13.8295 C.ar    1  UNL1       -0.0108
     15 C          62.9421   83.4055   12.5353 C.ar    1  UNL1       -0.0025
     16 C          63.0974   82.5976   11.2811 C.ar    1  UNL1        0.0111
     17 C          62.9191   81.1087   11.3210 C.ar    1  UNL1        0.0577
     18 CL         63.0744   80.3008   10.0668 Cl      1  UNL1       -0.0822
     19 C          62.5854   80.4278   12.6152 C.ar    1  UNL1        0.0111
     20 C          62.4300   81.2358   13.8695 C.ar    1  UNL1       -0.0025
@<TRIPOS>BOND
     1    10    11    1
     2    11     1    1
     3     1     2    2
     4     2     3    1
     5     3     4    2
     6     4     5    1
     7     5     6    2
     8     6    12    1
     9    12    13    1
    10    13    14    1
    11    14    15   ar
    12    15    16   ar
    13    16    17   ar
    14    17    18    1
    15    17    19   ar
    16    19    20   ar
    17     6     7    1
    18     7     8    2
    19     8     9    1
    20     9     1    1
    21     8     4    1
    22    20    14   ar
@<TRIPOS>MOLECULE
*****
 20 22 0 0 0
SMALL
GASTEIGER

@<TRIPOS>ATOM
      1 C          63.3366   82.3120   13.7986 C.2     1  UNL1        0.1223
      2 C          64.0101   83.2612   14.7448 C.2     1  UNL1        0.0343
      3 C          64.0085   84.7335   14.4578 C.2     1  UNL1        0.0232
      4 C          63.3334   85.2565   13.2246 C.2     1  UNL1        0.0975
      5 N          63.1700   86.6455   12.6823 N.2     1  UNL1       -0.2200
      6 C          62.3955   86.5546   11.4009 C.2     1  UNL1        0.1901
      7 N          62.0803   85.1095   11.1513 N.2     1  UNL1       -0.2236
      8 C          62.6600   84.3073   12.2785 C.2     1  UNL1        0.0863
      9 C          62.6616   82.8350   12.5654 C.3     1  UNL1        0.1112
     10 C          62.3584   79.9395   13.3930 C.3     1  UNL1        0.2520
     11 O          63.3382   80.8397   14.0855 O.2     1  UNL1       -0.4753
     12 S          62.0048   87.7067   10.5233 S.3     1  UNL1       -0.0709
     13 C          61.6402   89.0264   11.1360 C.3     1  UNL1        0.0913
     14 C          62.7096   90.0337   11.4387 C.ar    1  UNL1       -0.0108
     15 C          63.1859   90.9673   10.3656 C.ar    1  UNL1       -0.0025
     16 C          64.2553   91.9747   10.6683 C.ar    1  UNL1        0.0111
     17 C          64.8484   92.0484   12.0441 C.ar    1  UNL1        0.0577
     18 CL         65.9178   93.0557   12.3468 Cl      1  UNL1       -0.0822
     19 C          64.3721   91.1148   13.1172 C.ar    1  UNL1        0.0111
     20 C          63.3027   90.1074   12.8145 C.ar    1  UNL1       -0.0025
@<TRIPOS>BOND
     1    10    11    1
     2    11     1    1
     3     1     2    2
     4     2     3    1
     5     3     4    2
     6     4     5    1
     7     5     6    2
     8     6    12    1
     9    12    13    1
    10    13    14    1
    11    14    15   ar
    12    15    16   ar
    13    16    17   ar
    14    17    18    1
    15    17    19   ar
    16    19    20   ar
    17     6     7    1
    18     7     8    2
    19     8     9    1
    20     9     1    1
    21     8     4    1
    22    20    14   ar
@<TRIPOS>MOLECULE
*****
 20 22 0 0 0
SMALL
GASTEIGER

@<TRIPOS>ATOM
      1 C          60.7066   88.2297    9.3185 C.2     1  UNL1        0.1223
      2 C          61.5153   89.4039    9.7848 C.2     1  UNL1        0.0343
      3 C          62.4601   89.2525   10.9400 C.2     1  UNL1        0.0232
      4 C          62.5962   87.9271   11.6289 C.2     1  UNL1        0.0975
      5 N          63.4396   87.4790   12.7855 N.2     1  UNL1       -0.2200
      6 C          63.1522   86.0279   13.0341 C.2     1  UNL1        0.1901
      7 N          62.1311   85.5792   12.0311 N.2     1  UNL1       -0.2236
      8 C          61.7875   86.7530   11.1626 C.2     1  UNL1        0.0863
      9 C          60.8427   86.9043   10.0074 C.3     1  UNL1        0.1112
     10 C          59.0128   87.1890    7.6459 C.3     1  UNL1        0.2520
     11 O          59.7618   88.3811    8.1633 O.2     1  UNL1       -0.4753
     12 S          63.7763   85.1753   14.0989 S.3     1  UNL1       -0.0709
     13 C          64.6685   84.0316   13.7167 C.3     1  UNL1        0.0913
     14 C          64.1841   82.9938   12.7481 C.ar    1  UNL1       -0.0108
     15 C          64.5146   83.1164   11.2901 C.ar    1  UNL1       -0.0025
     16 C          64.0303   82.0785   10.3214 C.ar    1  UNL1        0.0111
     17 C          63.2154   80.9181   10.8108 C.ar    1  UNL1        0.0577
     18 CL         62.7310   79.8803    9.8421 Cl      1  UNL1       -0.0822
     19 C          62.8849   80.7955   12.2688 C.ar    1  UNL1        0.0111
     20 C          63.3693   81.8334   13.2374 C.ar    1  UNL1       -0.0025
@<TRIPOS>BOND
     1    10    11    1
     2    11     1    1
     3     1     2    2
     4     2     3    1
     5     3     4    2
     6     4     5    1
     7     5     6    2
     8     6    12    1
     9    12    13    1
    10    13    14    1
    11    14    15   ar
    12    15    16   ar
    13    16    17   ar
    14    17    18    1
    15    17    19   ar
    16    19    20   ar
    17     6     7    1
    18     7     8    2
    19     8     9    1
    20     9     1    1
    21     8     4    1
    22    20    14   ar
