@<TRIPOS>MOLECULE
*****
 47 52 0 0 0
SMALL
GASTEIGER

@<TRIPOS>ATOM
      1 C          61.0534   89.5892   10.9644 C.3     1  UNL1        0.1209
      2 C          64.3285   91.8028   11.3160 C.ar    1  UNL1       -0.0226
      3 C          64.5838   91.6992   12.7904 C.ar    1  UNL1       -0.0077
      4 C          63.6623   90.8923   13.6563 C.ar    1  UNL1       -0.0121
      5 C          62.4855   90.1889   13.0476 C.ar    1  UNL1        0.0513
      6 CL         61.5640   89.3820   13.9134 Cl      1  UNL1       -0.0828
      7 C          62.2302   90.2925   11.5731 C.ar    1  UNL1        0.0076
      8 C          63.1517   91.0995   10.7073 C.ar    1  UNL1       -0.0061
      9 C          65.2500   92.6098   10.4501 C.3     1  UNL1        0.0289
     10 C          66.7060   92.7122   10.7958 C.3     1  UNL1        0.0367
     11 C          67.7268   92.8618    9.7070 C.3     1  UNL1        0.1426
     12 C          67.7409   95.3233    8.8757 C.3     1  UNL1        0.1741
     13 O          68.4428   94.1672    9.5244 O.3     1  UNL1       -0.3511
     14 C          63.9176   90.7887   15.1307 C.3     1  UNL1        0.0286
     15 C          62.8465   90.2677   16.0425 C.3     1  UNL1        0.0220
     16 C          63.1504   89.1485   16.9939 C.3     1  UNL1        0.0725
     17 N          63.5764   87.8106   16.4664 N.3     1  UNL1       -0.2697
     18 C          64.4837   87.7285   15.2747 C.3     1  UNL1        0.0977
     19 C          64.9097   86.3905   14.7472 C.3     1  UNL1        0.1681
     20 S          64.4284   85.1345   15.4114 S.O2    1  UNL1       -0.0072
     21 O          64.2394   83.6740   15.6960 O.2     1  UNL1       -0.1729
     22 O          65.2700   84.5452   14.3186 O.2     1  UNL1       -0.1729
     23 C          63.5211   85.2166   16.6030 C.3     1  UNL1        0.1681
     24 C          63.0951   86.5547   17.1305 C.3     1  UNL1        0.0977
     25 N          61.2580   88.3296   10.1760 N.am    1  UNL1       -0.2769
     26 C          62.3805   87.3988   10.5275 C.2     1  UNL1        0.2294
     27 O          63.2984   87.7275   11.6674 O.2     1  UNL1       -0.2747
     28 C          62.5851   86.1392    9.7391 C.3     1  UNL1        0.1211
     29 C          62.7830   86.2079    8.2538 C.3     1  UNL1        0.0804
     30 N          62.9875   84.9483    7.4654 N.3     1  UNL1       -0.2969
     31 C          62.9941   83.6200    8.1623 C.3     1  UNL1        0.0714
     32 C          62.7962   83.5513    9.6476 C.3     1  UNL1        0.0490
     33 C          62.5917   84.8109   10.4359 C.3     1  UNL1        0.1224
     34 O          62.3767   85.9793   11.3518 O.3     1  UNL1       -0.3492
     35 C          62.2261   85.4523   12.7481 C.3     1  UNL1        0.1687
     36 C          62.3481   83.9582   12.6953 C.ar    1  UNL1        0.0079
     37 C          62.2826   82.9074   13.7636 C.ar    1  UNL1        0.0299
     38 C          62.4430   81.4602   13.4032 C.ar    1  UNL1        0.1671
     39 F          62.3775   80.4095   14.4715 F       1  UNL1       -0.2018
     40 C          62.6689   81.0638   11.9742 C.ar    1  UNL1        0.1671
     41 F          62.8293   79.6167   11.6137 F       1  UNL1       -0.2018
     42 C          62.7344   82.1146   10.9057 C.ar    1  UNL1        0.0297
     43 C          62.5740   83.5618   11.2662 C.ar    1  UNL1        0.0033
     44 H          63.8880   85.0384    6.9948 H       1  UNL1        0.1233
     45 C          60.3401   88.0009    9.0361 C.3     1  UNL1        0.0758
     46 C          59.3946   87.0514    8.3619 C.3     1  UNL1        0.0215
     47 C          59.6957   88.3809    7.7360 C.3     1  UNL1        0.0215
@<TRIPOS>BOND
     1    12    13    1
     2    13    11    1
     3    11    10    1
     4    10     9    1
     5     9     2    1
     6     2     3   ar
     7     3     4   ar
     8     4    14    1
     9    14    15    1
    10    15    16    1
    11    16    17    1
    12    17    18    1
    13    18    19    1
    14    19    20    1
    15    20    21    2
    16    20    22    2
    17    20    23    1
    18    23    24    1
    19     4     5   ar
    20     5     6    1
    21     5     7   ar
    22     7     1    1
    23     1    25    1
    24    25    26   am
    25    26    27    2
    26    28    26    1
    27    28    29    1
    28    29    30    1
    29    30    31    1
    30    31    32    1
    31    33    32    1
    32    33    34    1
    33    34    35    1
    34    35    36    1
    35    36    37   ar
    36    37    38   ar
    37    38    39    1
    38    38    40   ar
    39    40    41    1
    40    40    42   ar
    41    42    43   ar
    42    25    45    1
    43    45    46    1
    44    46    47    1
    45     7     8   ar
    46     8     2   ar
    47    24    17    1
    48    33    28    1
    49    43    36   ar
    50    47    45    1
    51    43    33    1
    52    30    44    1
@<TRIPOS>MOLECULE
*****
 47 52 0 0 0
SMALL
GASTEIGER

@<TRIPOS>ATOM
      1 C          60.1770   90.4464   10.2333 C.3     1  UNL1        0.1209
      2 C          59.3538   89.4425    6.4830 C.ar    1  UNL1       -0.0226
      3 C          59.5587   87.9576    6.5356 C.ar    1  UNL1       -0.0077
      4 C          59.9697   87.3021    7.8207 C.ar    1  UNL1       -0.0121
      5 C          60.1758   88.1317    9.0533 C.ar    1  UNL1        0.0513
      6 CL         60.5868   87.4764   10.3384 Cl      1  UNL1       -0.0828
      7 C          59.9709   89.6168    9.0007 C.ar    1  UNL1        0.0076
      8 C          59.5599   90.2722    7.7156 C.ar    1  UNL1       -0.0061
      9 C          58.9427   90.0980    5.1979 C.3     1  UNL1        0.0289
     10 C          58.6701   91.5725    5.1618 C.3     1  UNL1        0.0367
     11 C          59.5310   92.4742    4.3276 C.3     1  UNL1        0.1426
     12 C          60.2123   93.2644    1.9483 C.3     1  UNL1        0.1741
     13 O          59.1751   92.7355    2.8941 O.3     1  UNL1       -0.3511
     14 C          60.1746   85.8171    7.8732 C.3     1  UNL1        0.0286
     15 C          61.5372   85.2390    7.6301 C.3     1  UNL1        0.0220
     16 C          62.6779   85.6012    8.5344 C.3     1  UNL1        0.0725
     17 N          63.0005   84.7375    9.7174 N.3     1  UNL1       -0.2697
     18 C          64.0010   83.6276    9.5852 C.3     1  UNL1        0.0977
     19 C          64.3236   82.7639   10.7683 C.3     1  UNL1        0.1681
     20 S          63.6459   83.0099   12.0837 S.O2    1  UNL1       -0.0072
     21 O          63.2702   82.8514   13.5272 O.2     1  UNL1       -0.1729
     22 O          64.5158   81.8450   12.4528 O.2     1  UNL1       -0.1729
     23 C          62.6455   84.1197   12.2159 C.3     1  UNL1        0.1681
     24 C          62.3228   84.9835   11.0327 C.3     1  UNL1        0.0977
     25 N          60.9419   89.8858   11.3954 N.am    1  UNL1       -0.2769
     26 C          62.4303   89.7226   11.3051 C.2     1  UNL1        0.2294
     27 O          63.1537   90.1200   10.0527 O.2     1  UNL1       -0.2747
     28 C          63.1952   89.1620   12.4673 C.3     1  UNL1        0.1211
     29 C          62.9507   87.7518   12.9160 C.3     1  UNL1        0.0804
     30 N          63.7156   87.1912   14.0781 N.3     1  UNL1       -0.2969
     31 C          64.7250   88.0409   14.7916 C.3     1  UNL1        0.0714
     32 C          64.9695   89.4512   14.3430 C.3     1  UNL1        0.0490
     33 C          64.2046   90.0117   13.1808 C.3     1  UNL1        0.1224
     34 O          63.5195   90.7057   12.0410 O.3     1  UNL1       -0.3492
     35 C          64.0686   92.0985   11.9489 C.3     1  UNL1        0.1687
     36 C          65.0931   92.2655   13.0318 C.ar    1  UNL1        0.0079
     37 C          65.9601   93.4252   13.4230 C.ar    1  UNL1        0.0299
     38 C          66.9114   93.2953   14.5756 C.ar    1  UNL1        0.1671
     39 F          67.7785   94.4550   14.9668 F       1  UNL1       -0.2018
     40 C          66.9954   92.0056   15.3369 C.ar    1  UNL1        0.1671
     41 F          67.9466   91.8757   16.4895 F       1  UNL1       -0.2018
     42 C          66.1283   90.8458   14.9458 C.ar    1  UNL1        0.0297
     43 C          65.1771   90.9758   13.7932 C.ar    1  UNL1        0.0033
     44 H          64.2127   86.3694   13.7346 H       1  UNL1        0.1233
     45 C          60.2185   89.4884   12.6480 C.3     1  UNL1        0.0758
     46 C          58.9884   88.9623   13.3263 C.3     1  UNL1        0.0215
     47 C          60.1956   89.3262   14.1389 C.3     1  UNL1        0.0215
@<TRIPOS>BOND
     1    12    13    1
     2    13    11    1
     3    11    10    1
     4    10     9    1
     5     9     2    1
     6     2     3   ar
     7     3     4   ar
     8     4    14    1
     9    14    15    1
    10    15    16    1
    11    16    17    1
    12    17    18    1
    13    18    19    1
    14    19    20    1
    15    20    21    2
    16    20    22    2
    17    20    23    1
    18    23    24    1
    19     4     5   ar
    20     5     6    1
    21     5     7   ar
    22     7     1    1
    23     1    25    1
    24    25    26   am
    25    26    27    2
    26    28    26    1
    27    28    29    1
    28    29    30    1
    29    30    31    1
    30    31    32    1
    31    33    32    1
    32    33    34    1
    33    34    35    1
    34    35    36    1
    35    36    37   ar
    36    37    38   ar
    37    38    39    1
    38    38    40   ar
    39    40    41    1
    40    40    42   ar
    41    42    43   ar
    42    25    45    1
    43    45    46    1
    44    46    47    1
    45     7     8   ar
    46     8     2   ar
    47    24    17    1
    48    33    28    1
    49    43    36   ar
    50    47    45    1
    51    43    33    1
    52    30    44    1
@<TRIPOS>MOLECULE
*****
 47 52 0 0 0
SMALL
GASTEIGER

@<TRIPOS>ATOM
      1 C          61.0864   87.2350   11.8108 C.3     1  UNL1        0.1209
      2 C          62.8454   84.7337    9.2810 C.ar    1  UNL1       -0.0226
      3 C          63.0890   83.5528   10.1732 C.ar    1  UNL1       -0.0077
      4 C          62.6650   83.5993   11.6114 C.ar    1  UNL1       -0.0121
      5 C          61.9975   84.8267   12.1572 C.ar    1  UNL1        0.0513
      6 CL         61.5736   84.8731   13.5953 Cl      1  UNL1       -0.0828
      7 C          61.7539   86.0076   11.2649 C.ar    1  UNL1        0.0076
      8 C          62.1778   85.9611    9.8269 C.ar    1  UNL1       -0.0061
      9 C          63.2693   84.6873    7.8429 C.3     1  UNL1        0.0289
     10 C          62.2485   84.4623    6.7670 C.3     1  UNL1        0.0367
     11 C          61.1650   85.4740    6.5378 C.3     1  UNL1        0.1426
     12 C          59.1454   86.6559    7.6665 C.3     1  UNL1        0.1741
     13 O          59.8907   85.3997    7.3256 O.3     1  UNL1       -0.3511
     14 C          62.9087   82.4184   12.5036 C.3     1  UNL1        0.0286
     15 C          64.2321   82.2583   13.1911 C.3     1  UNL1        0.0220
     16 C          64.9690   83.4658   13.6902 C.3     1  UNL1        0.0725
     17 N          64.3398   84.3554   14.7211 N.3     1  UNL1       -0.2697
     18 C          63.3502   83.7900   15.6963 C.3     1  UNL1        0.0977
     19 C          62.7210   84.6795   16.7272 C.3     1  UNL1        0.1681
     20 S          63.0814   86.1346   16.7829 S.O2    1  UNL1       -0.0072
     21 O          63.1004   87.5658   17.2313 O.2     1  UNL1       -0.1729
     22 O          62.0984   86.0662   17.9138 O.2     1  UNL1       -0.1729
     23 C          64.0710   86.7000   15.8077 C.3     1  UNL1        0.1681
     24 C          64.7002   85.8103   14.7768 C.3     1  UNL1        0.0977
     25 N          61.5780   88.5954   11.4139 N.am    1  UNL1       -0.2769
     26 C          62.9790   89.0138   11.7489 C.2     1  UNL1        0.2294
     27 O          63.8883   88.0718   12.4807 O.2     1  UNL1       -0.2747
     28 C          63.4705   90.3743   11.3520 C.3     1  UNL1        0.1211
     29 C          63.0772   90.9568   10.0270 C.3     1  UNL1        0.0804
     30 N          63.5687   92.3173    9.6302 N.3     1  UNL1       -0.2969
     31 C          64.4537   93.0952   10.5584 C.3     1  UNL1        0.0714
     32 C          64.8471   92.5127   11.8835 C.3     1  UNL1        0.0490
     33 C          64.3555   91.1522   12.2803 C.3     1  UNL1        0.1224
     34 O          63.9438   89.8109   12.8110 O.3     1  UNL1       -0.3492
     35 C          64.5634   89.6384   14.1661 C.3     1  UNL1        0.1687
     36 C          65.3582   90.8730   14.4729 C.ar    1  UNL1        0.0079
     37 C          66.1823   91.2662   15.6629 C.ar    1  UNL1        0.0299
     38 C          66.8779   92.5950   15.6876 C.ar    1  UNL1        0.1671
     39 F          67.7020   92.9882   16.8776 F       1  UNL1       -0.2018
     40 C          66.7494   93.5305   14.5222 C.ar    1  UNL1        0.1671
     41 F          67.4450   94.8593   14.5468 F       1  UNL1       -0.2018
     42 C          65.9253   93.1374   13.3320 C.ar    1  UNL1        0.0297
     43 C          65.2297   91.8086   13.3074 C.ar    1  UNL1        0.0033
     44 H          62.7426   92.8911    9.4611 H       1  UNL1        0.1233
     45 C          60.6686   89.5375   10.6821 C.3     1  UNL1        0.0758
     46 C          59.7156   90.6958   10.6947 C.3     1  UNL1        0.0215
     47 C          60.0466   90.0109    9.4019 C.3     1  UNL1        0.0215
@<TRIPOS>BOND
     1    12    13    1
     2    13    11    1
     3    11    10    1
     4    10     9    1
     5     9     2    1
     6     2     3   ar
     7     3     4   ar
     8     4    14    1
     9    14    15    1
    10    15    16    1
    11    16    17    1
    12    17    18    1
    13    18    19    1
    14    19    20    1
    15    20    21    2
    16    20    22    2
    17    20    23    1
    18    23    24    1
    19     4     5   ar
    20     5     6    1
    21     5     7   ar
    22     7     1    1
    23     1    25    1
    24    25    26   am
    25    26    27    2
    26    28    26    1
    27    28    29    1
    28    29    30    1
    29    30    31    1
    30    31    32    1
    31    33    32    1
    32    33    34    1
    33    34    35    1
    34    35    36    1
    35    36    37   ar
    36    37    38   ar
    37    38    39    1
    38    38    40   ar
    39    40    41    1
    40    40    42   ar
    41    42    43   ar
    42    25    45    1
    43    45    46    1
    44    46    47    1
    45     7     8   ar
    46     8     2   ar
    47    24    17    1
    48    33    28    1
    49    43    36   ar
    50    47    45    1
    51    43    33    1
    52    30    44    1
@<TRIPOS>MOLECULE
*****
 47 52 0 0 0
SMALL
GASTEIGER

@<TRIPOS>ATOM
      1 C          65.3990   89.7813   14.3929 C.3     1  UNL1        0.1209
      2 C          65.2206   92.7066   11.7170 C.ar    1  UNL1       -0.0226
      3 C          64.1599   92.1829   10.7948 C.ar    1  UNL1       -0.0077
      4 C          63.5122   90.8586   11.0719 C.ar    1  UNL1       -0.0121
      5 C          63.9252   90.0581   12.2713 C.ar    1  UNL1        0.0513
      6 CL         63.2775   88.7339   12.5485 Cl      1  UNL1       -0.0828
      7 C          64.9860   90.5819   13.1936 C.ar    1  UNL1        0.0076
      8 C          65.6337   91.9061   12.9164 C.ar    1  UNL1       -0.0061
      9 C          65.8684   94.0309   11.4398 C.3     1  UNL1        0.0289
     10 C          66.1688   94.4379   10.0277 C.3     1  UNL1        0.0367
     11 C          67.5422   94.9168    9.6613 C.3     1  UNL1        0.1426
     12 C          68.4627   92.5190    9.2700 C.3     1  UNL1        0.1741
     13 O          68.6921   93.9538    9.6423 O.3     1  UNL1       -0.3511
     14 C          62.4514   90.3349   10.1497 C.3     1  UNL1        0.0286
     15 C          61.0325   90.2262   10.6237 C.3     1  UNL1        0.0220
     16 C          60.3878   88.8784   10.7580 C.3     1  UNL1        0.0725
     17 N          60.6798   87.8038    9.7530 N.3     1  UNL1       -0.2697
     18 C          62.0285   87.1477    9.7271 C.3     1  UNL1        0.0977
     19 C          62.3205   86.0731    8.7222 C.3     1  UNL1        0.1681
     20 S          61.2639   85.6546    7.7431 S.O2    1  UNL1       -0.0072
     21 O          60.5950   84.9196    6.6196 O.2     1  UNL1       -0.1729
     22 O          62.3802   84.7433    7.3270 O.2     1  UNL1       -0.1729
     23 C          59.9153   86.3107    7.7690 C.3     1  UNL1        0.1681
     24 C          59.6232   87.3854    8.7741 C.3     1  UNL1        0.0977
     25 N          64.4174   88.8595   15.0537 N.am    1  UNL1       -0.2769
     26 C          64.7112   87.3913   15.1444 C.2     1  UNL1        0.2294
     27 O          65.9865   86.8450   14.5744 O.2     1  UNL1       -0.2747
     28 C          63.7295   86.4695   15.8052 C.3     1  UNL1        0.1211
     29 C          63.1561   86.8208   17.1460 C.3     1  UNL1        0.0804
     30 N          62.1745   85.8990   17.8067 N.3     1  UNL1       -0.2969
     31 C          61.7662   84.6259   17.1266 C.3     1  UNL1        0.0714
     32 C          62.3396   84.2746   15.7858 C.3     1  UNL1        0.0490
     33 C          63.3212   85.1964   15.1251 C.3     1  UNL1        0.1224
     34 O          64.3075   86.0152   14.3460 O.3     1  UNL1       -0.3492
     35 C          64.6049   85.2895   13.0673 C.3     1  UNL1        0.1687
     36 C          63.8024   84.0222   13.0561 C.ar    1  UNL1        0.0079
     37 C          63.6916   82.9132   12.0523 C.ar    1  UNL1        0.0299
     38 C          62.7874   81.7466   12.3201 C.ar    1  UNL1        0.1671
     39 F          62.6766   80.6377   11.3163 F       1  UNL1       -0.2018
     40 C          61.9941   81.6892   13.5919 C.ar    1  UNL1        0.1671
     41 F          61.0900   80.5227   13.8597 F       1  UNL1       -0.2018
     42 C          62.1049   82.7982   14.5958 C.ar    1  UNL1        0.0297
     43 C          63.0090   83.9647   14.3280 C.ar    1  UNL1        0.0033
     44 H          61.3219   86.4375   17.9598 H       1  UNL1        0.1233
     45 C          63.1420   89.4058   15.6237 C.3     1  UNL1        0.0758
     46 C          62.4224   90.1898   16.6809 C.3     1  UNL1        0.0215
     47 C          61.6524   89.5680   15.5538 C.3     1  UNL1        0.0215
@<TRIPOS>BOND
     1    12    13    1
     2    13    11    1
     3    11    10    1
     4    10     9    1
     5     9     2    1
     6     2     3   ar
     7     3     4   ar
     8     4    14    1
     9    14    15    1
    10    15    16    1
    11    16    17    1
    12    17    18    1
    13    18    19    1
    14    19    20    1
    15    20    21    2
    16    20    22    2
    17    20    23    1
    18    23    24    1
    19     4     5   ar
    20     5     6    1
    21     5     7   ar
    22     7     1    1
    23     1    25    1
    24    25    26   am
    25    26    27    2
    26    28    26    1
    27    28    29    1
    28    29    30    1
    29    30    31    1
    30    31    32    1
    31    33    32    1
    32    33    34    1
    33    34    35    1
    34    35    36    1
    35    36    37   ar
    36    37    38   ar
    37    38    39    1
    38    38    40   ar
    39    40    41    1
    40    40    42   ar
    41    42    43   ar
    42    25    45    1
    43    45    46    1
    44    46    47    1
    45     7     8   ar
    46     8     2   ar
    47    24    17    1
    48    33    28    1
    49    43    36   ar
    50    47    45    1
    51    43    33    1
    52    30    44    1
@<TRIPOS>MOLECULE
*****
 47 52 0 0 0
SMALL
GASTEIGER

@<TRIPOS>ATOM
      1 C          61.4421   86.7515   12.7092 C.3     1  UNL1        0.1209
      2 C          62.9100   84.9852    9.4726 C.ar    1  UNL1       -0.0226
      3 C          62.0868   85.6322    8.3986 C.ar    1  UNL1       -0.0077
      4 C          61.0487   86.6524    8.7614 C.ar    1  UNL1       -0.0121
      5 C          60.8338   87.0255   10.1982 C.ar    1  UNL1        0.0513
      6 CL         59.7957   88.0456   10.5611 Cl      1  UNL1       -0.0828
      7 C          61.6570   86.3784   11.2723 C.ar    1  UNL1        0.0076
      8 C          62.6951   85.3583   10.9095 C.ar    1  UNL1       -0.0061
      9 C          63.9481   83.9650    9.1098 C.3     1  UNL1        0.0289
     10 C          64.4075   82.9666   10.1307 C.3     1  UNL1        0.0367
     11 C          63.4945   81.8552   10.5566 C.3     1  UNL1        0.1426
     12 C          62.6546   80.3917   12.5320 C.3     1  UNL1        0.1741
     13 O          63.0974   81.7211   11.9968 O.3     1  UNL1       -0.3511
     14 C          60.2255   87.2994    7.6873 C.3     1  UNL1        0.0286
     15 C          60.0046   88.7830    7.7030 C.3     1  UNL1        0.0220
     16 C          58.9331   89.3908    6.8470 C.3     1  UNL1        0.0725
     17 N          59.2979   90.3728    5.7734 N.3     1  UNL1       -0.2697
     18 C          60.7297   90.5286    5.3545 C.3     1  UNL1        0.0977
     19 C          61.0945   91.5105    4.2809 C.3     1  UNL1        0.1681
     20 S          60.0274   92.3367    3.6261 S.O2    1  UNL1       -0.0072
     21 O          59.3793   93.3377    2.7162 O.2     1  UNL1       -0.1729
     22 O          61.2342   92.8402    2.8912 O.2     1  UNL1       -0.1729
     23 C          58.5955   92.1809    4.0450 C.3     1  UNL1        0.1681
     24 C          58.2308   91.1989    5.1187 C.3     1  UNL1        0.0977
     25 N          62.4143   87.6600   13.4016 N.am    1  UNL1       -0.2769
     26 C          62.1294   89.1295   13.4982 C.2     1  UNL1        0.2294
     27 O          60.8724   89.6905   12.9023 O.2     1  UNL1       -0.2747
     28 C          63.1017   90.0380   14.1907 C.3     1  UNL1        0.1211
     29 C          63.2402   89.9902   15.6835 C.3     1  UNL1        0.0804
     30 N          64.2124   90.8987   16.3759 N.3     1  UNL1       -0.2969
     31 C          65.0461   91.8549   15.5755 C.3     1  UNL1        0.0714
     32 C          64.9075   91.9027   14.0827 C.3     1  UNL1        0.0490
     33 C          63.9353   90.9943   13.3903 C.3     1  UNL1        0.1224
     34 O          63.0104   90.1513   12.5632 O.3     1  UNL1       -0.3492
     35 C          63.2007   90.5294   11.1242 C.3     1  UNL1        0.1687
     36 C          64.2434   91.6061   11.0618 C.ar    1  UNL1        0.0079
     37 C          64.8380   92.3619    9.9108 C.ar    1  UNL1        0.0299
     38 C          65.8867   93.4051   10.1602 C.ar    1  UNL1        0.1671
     39 F          66.4813   94.1610    9.0092 F       1  UNL1       -0.2018
     40 C          66.3406   93.6923   11.5607 C.ar    1  UNL1        0.1671
     41 F          67.3893   94.7355   11.8101 F       1  UNL1       -0.2018
     42 C          65.7460   92.9365   12.7118 C.ar    1  UNL1        0.0297
     43 C          64.6974   91.8933   12.4624 C.ar    1  UNL1        0.0033
     44 H          64.8606   90.3006   16.8883 H       1  UNL1        0.1233
     45 C          63.6714   87.0989   13.9976 C.3     1  UNL1        0.0758
     46 C          64.9460   87.2953   14.7635 C.3     1  UNL1        0.0215
     47 C          64.5740   85.9309   14.2637 C.3     1  UNL1        0.0215
@<TRIPOS>BOND
     1    12    13    1
     2    13    11    1
     3    11    10    1
     4    10     9    1
     5     9     2    1
     6     2     3   ar
     7     3     4   ar
     8     4    14    1
     9    14    15    1
    10    15    16    1
    11    16    17    1
    12    17    18    1
    13    18    19    1
    14    19    20    1
    15    20    21    2
    16    20    22    2
    17    20    23    1
    18    23    24    1
    19     4     5   ar
    20     5     6    1
    21     5     7   ar
    22     7     1    1
    23     1    25    1
    24    25    26   am
    25    26    27    2
    26    28    26    1
    27    28    29    1
    28    29    30    1
    29    30    31    1
    30    31    32    1
    31    33    32    1
    32    33    34    1
    33    34    35    1
    34    35    36    1
    35    36    37   ar
    36    37    38   ar
    37    38    39    1
    38    38    40   ar
    39    40    41    1
    40    40    42   ar
    41    42    43   ar
    42    25    45    1
    43    45    46    1
    44    46    47    1
    45     7     8   ar
    46     8     2   ar
    47    24    17    1
    48    33    28    1
    49    43    36   ar
    50    47    45    1
    51    43    33    1
    52    30    44    1
@<TRIPOS>MOLECULE
*****
 47 52 0 0 0
SMALL
GASTEIGER

@<TRIPOS>ATOM
      1 C          62.3118   90.3627   10.0999 C.3     1  UNL1        0.1209
      2 C          59.6693   88.8239    7.5702 C.ar    1  UNL1       -0.0226
      3 C          59.9379   87.3576    7.7369 C.ar    1  UNL1       -0.0077
      4 C          60.9978   86.8929    8.6913 C.ar    1  UNL1       -0.0121
      5 C          61.7891   87.8946    9.4789 C.ar    1  UNL1        0.0513
      6 CL         62.8490   87.4300   10.4333 Cl      1  UNL1       -0.0828
      7 C          61.5205   89.3610    9.3122 C.ar    1  UNL1        0.0076
      8 C          60.4607   89.8256    8.3579 C.ar    1  UNL1       -0.0061
      9 C          58.6094   89.2885    6.6159 C.3     1  UNL1        0.0289
     10 C          58.9420   90.3020    5.5612 C.3     1  UNL1        0.0367
     11 C          57.9454   91.3634    5.2003 C.3     1  UNL1        0.1426
     12 C          59.7524   92.5997    3.8016 C.3     1  UNL1        0.1741
     13 O          58.3281   92.4596    4.2506 O.3     1  UNL1       -0.3511
     14 C          61.2664   85.4266    8.8580 C.3     1  UNL1        0.0286
     15 C          62.5255   84.8272    8.3054 C.3     1  UNL1        0.0220
     16 C          63.6060   84.3620    9.2361 C.3     1  UNL1        0.0725
     17 N          63.2727   83.4392   10.3706 N.3     1  UNL1       -0.2697
     18 C          62.7132   83.9923   11.6477 C.3     1  UNL1        0.0977
     19 C          62.3798   83.0694   12.7822 C.3     1  UNL1        0.1681
     20 S          62.6060   81.5934   12.6397 S.O2    1  UNL1       -0.0072
     21 O          62.6422   80.1334   12.9819 O.2     1  UNL1       -0.1729
     22 O          62.0591   81.6394   14.0356 O.2     1  UNL1       -0.1729
     23 C          63.1655   81.0403   11.3625 C.3     1  UNL1        0.1681
     24 C          63.4988   81.9632   10.2280 C.3     1  UNL1        0.0977
     25 N          62.3035   90.3136   11.5990 N.am    1  UNL1       -0.2769
     26 C          63.5506   90.6374   12.3670 C.2     1  UNL1        0.2294
     27 O          64.8061   91.0103   11.6359 O.2     1  UNL1       -0.2747
     28 C          63.5422   90.5883   13.8662 C.3     1  UNL1        0.1211
     29 C          63.4861   91.8610   14.6580 C.3     1  UNL1        0.0804
     30 N          63.4777   91.8119   16.1572 N.3     1  UNL1       -0.2969
     31 C          63.5253   90.4900   16.8645 C.3     1  UNL1        0.0714
     32 C          63.5814   89.2173   16.0727 C.3     1  UNL1        0.0490
     33 C          63.5898   89.2664   14.5736 C.3     1  UNL1        0.1224
     34 O          63.6044   89.1587   13.0775 O.3     1  UNL1       -0.3492
     35 C          63.6648   87.7036   12.7181 C.3     1  UNL1        0.1687
     36 C          63.6874   86.9120   13.9920 C.ar    1  UNL1        0.0079
     37 C          63.7442   85.4366   14.2560 C.ar    1  UNL1        0.0299
     38 C          63.7547   84.9269   15.6668 C.ar    1  UNL1        0.1671
     39 F          63.8115   83.4515   15.9308 F       1  UNL1       -0.2018
     40 C          63.7084   85.8928   16.8135 C.ar    1  UNL1        0.1671
     41 F          63.7189   85.3831   18.2242 F       1  UNL1       -0.2018
     42 C          63.6516   87.3683   16.5495 C.ar    1  UNL1        0.0297
     43 C          63.6411   87.8779   15.1388 C.ar    1  UNL1        0.0033
     44 H          62.6235   92.2785   16.4623 H       1  UNL1        0.1233
     45 C          61.0479   89.9407   12.3302 C.3     1  UNL1        0.0758
     46 C          60.3453   89.5832   13.6064 C.3     1  UNL1        0.0215
     47 C          59.5760   89.6522   12.3206 C.3     1  UNL1        0.0215
@<TRIPOS>BOND
     1    12    13    1
     2    13    11    1
     3    11    10    1
     4    10     9    1
     5     9     2    1
     6     2     3   ar
     7     3     4   ar
     8     4    14    1
     9    14    15    1
    10    15    16    1
    11    16    17    1
    12    17    18    1
    13    18    19    1
    14    19    20    1
    15    20    21    2
    16    20    22    2
    17    20    23    1
    18    23    24    1
    19     4     5   ar
    20     5     6    1
    21     5     7   ar
    22     7     1    1
    23     1    25    1
    24    25    26   am
    25    26    27    2
    26    28    26    1
    27    28    29    1
    28    29    30    1
    29    30    31    1
    30    31    32    1
    31    33    32    1
    32    33    34    1
    33    34    35    1
    34    35    36    1
    35    36    37   ar
    36    37    38   ar
    37    38    39    1
    38    38    40   ar
    39    40    41    1
    40    40    42   ar
    41    42    43   ar
    42    25    45    1
    43    45    46    1
    44    46    47    1
    45     7     8   ar
    46     8     2   ar
    47    24    17    1
    48    33    28    1
    49    43    36   ar
    50    47    45    1
    51    43    33    1
    52    30    44    1
@<TRIPOS>MOLECULE
*****
 47 52 0 0 0
SMALL
GASTEIGER

@<TRIPOS>ATOM
      1 C          60.5931   87.9691    9.9233 C.3     1  UNL1        0.1209
      2 C          62.3024   85.0932    7.7885 C.ar    1  UNL1       -0.0226
      3 C          62.6970   84.1329    8.8710 C.ar    1  UNL1       -0.0077
      4 C          62.3904   84.4513   10.3045 C.ar    1  UNL1       -0.0121
      5 C          61.6891   85.7301   10.6552 C.ar    1  UNL1        0.0513
      6 CL         61.3824   86.0485   12.0886 Cl      1  UNL1       -0.0828
      7 C          61.2944   86.6904    9.5726 C.ar    1  UNL1        0.0076
      8 C          61.6011   86.3720    8.1392 C.ar    1  UNL1       -0.0061
      9 C          62.6091   84.7749    6.3550 C.3     1  UNL1        0.0289
     10 C          61.5475   84.1859    5.4739 C.3     1  UNL1        0.0367
     11 C          61.8704   83.8133    4.0573 C.3     1  UNL1        0.1426
     12 C          61.5819   84.7406    1.6476 C.3     1  UNL1        0.1741
     13 O          60.9813   84.2723    2.9398 O.3     1  UNL1       -0.3511
     14 C          62.7850   83.4910   11.3871 C.3     1  UNL1        0.0286
     15 C          64.2273   83.3476   11.7732 C.3     1  UNL1        0.0220
     16 C          64.6050   83.1850   13.2158 C.3     1  UNL1        0.0725
     17 N          64.0266   84.1040   14.2506 N.3     1  UNL1       -0.2697
     18 C          62.7732   83.7191   14.9791 C.3     1  UNL1        0.0977
     19 C          62.1949   84.6381   16.0140 C.3     1  UNL1        0.1681
     20 S          62.8700   85.9421   16.3203 S.O2    1  UNL1       -0.0072
     21 O          63.1427   87.2729   16.9564 O.2     1  UNL1       -0.1729
     22 O          61.7113   86.0193   17.2697 O.2     1  UNL1       -0.1729
     23 C          64.1234   86.3271   15.5918 C.3     1  UNL1        0.1681
     24 C          64.7018   85.4080   14.5569 C.3     1  UNL1        0.0977
     25 N          61.0078   88.7427   11.1397 N.am    1  UNL1       -0.2769
     26 C          62.4545   88.8060   11.5310 C.2     1  UNL1        0.2294
     27 O          63.4864   88.0958   10.7061 O.2     1  UNL1       -0.2747
     28 C          62.8692   89.5797   12.7475 C.3     1  UNL1        0.1211
     29 C          62.3994   89.1501   14.1057 C.3     1  UNL1        0.0804
     30 N          62.8141   89.9237   15.3220 N.3     1  UNL1       -0.2969
     31 C          63.6985   91.1269   15.1801 C.3     1  UNL1        0.0714
     32 C          64.1683   91.5565   13.8219 C.3     1  UNL1        0.0490
     33 C          63.7536   90.7828   12.6056 C.3     1  UNL1        0.1224
     34 O          63.4229   90.1120   11.3053 O.3     1  UNL1       -0.3492
     35 C          64.1015   90.8731   10.2052 C.3     1  UNL1        0.1687
     36 C          64.8516   92.0145   10.8256 C.ar    1  UNL1        0.0079
     37 C          65.7025   93.0973   10.2313 C.ar    1  UNL1        0.0299
     38 C          66.3386   94.1244   11.1205 C.ar    1  UNL1        0.1671
     39 F          67.1895   95.2073   10.5263 F       1  UNL1       -0.2018
     40 C          66.1236   94.0686   12.6040 C.ar    1  UNL1        0.1671
     41 F          66.7596   95.0956   13.4932 F       1  UNL1       -0.2018
     42 C          65.2726   92.9857   13.1983 C.ar    1  UNL1        0.0297
     43 C          64.6366   91.9586   12.3091 C.ar    1  UNL1        0.0033
     44 H          63.3021   89.2702   15.9344 H       1  UNL1        0.1233
     45 C          59.9759   89.4530   11.9647 C.3     1  UNL1        0.0758
     46 C          59.0737   90.6312   12.1839 C.3     1  UNL1        0.0215
     47 C          59.0906   89.5050   13.1745 C.3     1  UNL1        0.0215
@<TRIPOS>BOND
     1    12    13    1
     2    13    11    1
     3    11    10    1
     4    10     9    1
     5     9     2    1
     6     2     3   ar
     7     3     4   ar
     8     4    14    1
     9    14    15    1
    10    15    16    1
    11    16    17    1
    12    17    18    1
    13    18    19    1
    14    19    20    1
    15    20    21    2
    16    20    22    2
    17    20    23    1
    18    23    24    1
    19     4     5   ar
    20     5     6    1
    21     5     7   ar
    22     7     1    1
    23     1    25    1
    24    25    26   am
    25    26    27    2
    26    28    26    1
    27    28    29    1
    28    29    30    1
    29    30    31    1
    30    31    32    1
    31    33    32    1
    32    33    34    1
    33    34    35    1
    34    35    36    1
    35    36    37   ar
    36    37    38   ar
    37    38    39    1
    38    38    40   ar
    39    40    41    1
    40    40    42   ar
    41    42    43   ar
    42    25    45    1
    43    45    46    1
    44    46    47    1
    45     7     8   ar
    46     8     2   ar
    47    24    17    1
    48    33    28    1
    49    43    36   ar
    50    47    45    1
    51    43    33    1
    52    30    44    1
@<TRIPOS>MOLECULE
*****
 47 52 0 0 0
SMALL
GASTEIGER

@<TRIPOS>ATOM
      1 C          63.2507   89.6083   15.9532 C.3     1  UNL1        0.1209
      2 C          63.4887   91.1367   12.2985 C.ar    1  UNL1       -0.0226
      3 C          64.7114   91.9957   12.4295 C.ar    1  UNL1       -0.0077
      4 C          65.4472   92.0589   13.7352 C.ar    1  UNL1       -0.0121
      5 C          64.9603   91.2631   14.9097 C.ar    1  UNL1        0.0513
      6 CL         65.6960   91.3263   16.2154 Cl      1  UNL1       -0.0828
      7 C          63.7376   90.4041   14.7787 C.ar    1  UNL1        0.0076
      8 C          63.0018   90.3409   13.4731 C.ar    1  UNL1       -0.0061
      9 C          62.7529   91.0734   10.9928 C.3     1  UNL1        0.0289
     10 C          62.4140   89.7439   10.3866 C.3     1  UNL1        0.0367
     11 C          61.0316   89.4887    9.8635 C.3     1  UNL1        0.1426
     12 C          59.4357   90.0326   11.8401 C.3     1  UNL1        0.1741
     13 O          59.8663   90.2517   10.4201 O.3     1  UNL1       -0.3511
     14 C          66.6698   92.9179   13.8662 C.3     1  UNL1        0.0286
     15 C          66.5625   94.4051   13.7031 C.3     1  UNL1        0.0220
     16 C          66.2645   94.9922   12.3552 C.3     1  UNL1        0.0725
     17 N          66.8978   94.4095   11.1267 N.3     1  UNL1       -0.2697
     18 C          67.4476   93.0142   11.1563 C.3     1  UNL1        0.0977
     19 C          68.0809   92.4314    9.9278 C.3     1  UNL1        0.1681
     20 S          68.1643   93.2439    8.6696 S.O2    1  UNL1       -0.0072
     21 O          68.4762   93.6168    7.2505 O.2     1  UNL1       -0.1729
     22 O          68.8225   91.9781    8.2064 O.2     1  UNL1       -0.1729
     23 C          67.6144   94.6391    8.6400 C.3     1  UNL1        0.1681
     24 C          66.9811   95.2219    9.8686 C.3     1  UNL1        0.0977
     25 N          63.3314   88.1107   15.9298 N.am    1  UNL1       -0.2769
     26 C          64.0325   87.4149   14.8009 C.2     1  UNL1        0.2294
     27 O          64.6529   88.2168   13.6955 O.2     1  UNL1       -0.2747
     28 C          64.1132   85.9172   14.7776 C.3     1  UNL1        0.1211
     29 C          64.5192   85.1686   16.0124 C.3     1  UNL1        0.0804
     30 N          64.5998   83.6710   15.9889 N.3     1  UNL1       -0.2969
     31 C          64.2745   82.9220   14.7307 C.3     1  UNL1        0.0714
     32 C          63.8685   83.6706   13.4959 C.3     1  UNL1        0.0490
     33 C          63.7879   85.1682   13.5193 C.3     1  UNL1        0.1224
     34 O          63.6635   86.6577   13.3921 O.3     1  UNL1       -0.3492
     35 C          63.2337   86.9688   11.9891 C.3     1  UNL1        0.1687
     36 C          63.0925   85.6716   11.2491 C.ar    1  UNL1        0.0079
     37 C          62.6963   85.3601    9.8364 C.ar    1  UNL1        0.0299
     38 C          62.6425   83.9356    9.3693 C.ar    1  UNL1        0.1671
     39 F          62.2463   83.6240    7.9566 F       1  UNL1       -0.2018
     40 C          62.9850   82.8228   10.3151 C.ar    1  UNL1        0.1671
     41 F          62.9312   81.3984    9.8480 F       1  UNL1       -0.2018
     42 C          63.3812   83.1344   11.7279 C.ar    1  UNL1        0.0297
     43 C          63.4350   84.5588   12.1949 C.ar    1  UNL1        0.0033
     44 H          63.9613   83.3305   16.7078 H       1  UNL1        0.1233
     45 C          62.7109   87.3087   17.0353 C.3     1  UNL1        0.0758
     46 C          61.6814   86.3248   17.5064 C.3     1  UNL1        0.0215
     47 C          62.6658   86.9037   18.4788 C.3     1  UNL1        0.0215
@<TRIPOS>BOND
     1    12    13    1
     2    13    11    1
     3    11    10    1
     4    10     9    1
     5     9     2    1
     6     2     3   ar
     7     3     4   ar
     8     4    14    1
     9    14    15    1
    10    15    16    1
    11    16    17    1
    12    17    18    1
    13    18    19    1
    14    19    20    1
    15    20    21    2
    16    20    22    2
    17    20    23    1
    18    23    24    1
    19     4     5   ar
    20     5     6    1
    21     5     7   ar
    22     7     1    1
    23     1    25    1
    24    25    26   am
    25    26    27    2
    26    28    26    1
    27    28    29    1
    28    29    30    1
    29    30    31    1
    30    31    32    1
    31    33    32    1
    32    33    34    1
    33    34    35    1
    34    35    36    1
    35    36    37   ar
    36    37    38   ar
    37    38    39    1
    38    38    40   ar
    39    40    41    1
    40    40    42   ar
    41    42    43   ar
    42    25    45    1
    43    45    46    1
    44    46    47    1
    45     7     8   ar
    46     8     2   ar
    47    24    17    1
    48    33    28    1
    49    43    36   ar
    50    47    45    1
    51    43    33    1
    52    30    44    1
@<TRIPOS>MOLECULE
*****
 47 52 0 0 0
SMALL
GASTEIGER

@<TRIPOS>ATOM
      1 C          63.3951   89.5782   15.9700 C.3     1  UNL1        0.1209
      2 C          65.3739   91.9453   13.4738 C.ar    1  UNL1       -0.0226
      3 C          64.5283   91.8271   12.2406 C.ar    1  UNL1       -0.0077
      4 C          63.3048   90.9592   12.2505 C.ar    1  UNL1       -0.0121
      5 C          62.9270   90.2096   13.4936 C.ar    1  UNL1        0.0513
      6 CL         61.7036   89.3418   13.5036 Cl      1  UNL1       -0.0828
      7 C          63.7728   90.3279   14.7269 C.ar    1  UNL1        0.0076
      8 C          64.9962   91.1956   14.7169 C.ar    1  UNL1       -0.0061
      9 C          66.5974   92.8131   13.4639 C.3     1  UNL1        0.0289
     10 C          66.4852   94.2635   13.0981 C.3     1  UNL1        0.0367
     11 C          66.2549   94.6612   11.6703 C.3     1  UNL1        0.1426
     12 C          67.3864   93.4189    9.6888 C.3     1  UNL1        0.1741
     13 O          67.3691   94.5515   10.6721 O.3     1  UNL1       -0.3511
     14 C          62.4591   90.8411   11.0173 C.3     1  UNL1        0.0286
     15 C          61.0397   91.3259   11.0320 C.3     1  UNL1        0.0220
     16 C          59.9099   90.3393   11.0160 C.3     1  UNL1        0.0725
     17 N          59.8822   89.2474    9.9879 N.3     1  UNL1       -0.2697
     18 C          60.1249   87.8250   10.3976 C.3     1  UNL1        0.0977
     19 C          60.0972   86.7332    9.3695 C.3     1  UNL1        0.1681
     20 S          59.8267   87.0638    7.9315 S.O2    1  UNL1       -0.0072
     21 O          59.6150   86.8779    6.4582 O.2     1  UNL1       -0.1729
     22 O          59.9959   85.5769    7.8296 O.2     1  UNL1       -0.1729
     23 C          59.5840   88.4862    7.5218 C.3     1  UNL1        0.1681
     24 C          59.6118   89.5780    8.5500 C.3     1  UNL1        0.0977
     25 N          63.4238   88.0786   15.9794 N.am    1  UNL1       -0.2769
     26 C          64.1107   87.3346   14.8727 C.2     1  UNL1        0.2294
     27 O          64.7688   88.0903   13.7566 O.2     1  UNL1       -0.2747
     28 C          64.1394   85.8349   14.8822 C.3     1  UNL1        0.1211
     29 C          64.4742   85.0991   16.1457 C.3     1  UNL1        0.0804
     30 N          64.5029   83.5994   16.1550 N.3     1  UNL1       -0.2969
     31 C          64.1968   82.8356   14.9009 C.3     1  UNL1        0.0714
     32 C          63.8619   83.5713   13.6375 C.3     1  UNL1        0.0490
     33 C          63.8332   85.0710   13.6281 C.3     1  UNL1        0.1224
     34 O          63.7660   86.5609   13.4667 O.3     1  UNL1       -0.3492
     35 C          63.3981   86.8568   12.0430 C.3     1  UNL1        0.1687
     36 C          63.2379   85.5499   11.3243 C.ar    1  UNL1        0.0079
     37 C          62.8819   85.2223    9.9046 C.ar    1  UNL1        0.0299
     38 C          62.7948   83.7909    9.4643 C.ar    1  UNL1        0.1671
     39 F          62.4388   83.4633    8.0446 F       1  UNL1       -0.2018
     40 C          63.0638   82.6873   10.4439 C.ar    1  UNL1        0.1671
     41 F          62.9767   81.2560   10.0037 F       1  UNL1       -0.2018
     42 C          63.4198   83.0149   11.8638 C.ar    1  UNL1        0.0297
     43 C          63.5068   84.4462   12.3040 C.ar    1  UNL1        0.0033
     44 H          63.8274   83.2964   16.8567 H       1  UNL1        0.1233
     45 C          62.7657   87.3228   17.0956 C.3     1  UNL1        0.0758
     46 C          62.6564   86.9954   18.5553 C.3     1  UNL1        0.0215
     47 C          61.7351   86.3411   17.5689 C.3     1  UNL1        0.0215
@<TRIPOS>BOND
     1    12    13    1
     2    13    11    1
     3    11    10    1
     4    10     9    1
     5     9     2    1
     6     2     3   ar
     7     3     4   ar
     8     4    14    1
     9    14    15    1
    10    15    16    1
    11    16    17    1
    12    17    18    1
    13    18    19    1
    14    19    20    1
    15    20    21    2
    16    20    22    2
    17    20    23    1
    18    23    24    1
    19     4     5   ar
    20     5     6    1
    21     5     7   ar
    22     7     1    1
    23     1    25    1
    24    25    26   am
    25    26    27    2
    26    28    26    1
    27    28    29    1
    28    29    30    1
    29    30    31    1
    30    31    32    1
    31    33    32    1
    32    33    34    1
    33    34    35    1
    34    35    36    1
    35    36    37   ar
    36    37    38   ar
    37    38    39    1
    38    38    40   ar
    39    40    41    1
    40    40    42   ar
    41    42    43   ar
    42    25    45    1
    43    45    46    1
    44    46    47    1
    45     7     8   ar
    46     8     2   ar
    47    24    17    1
    48    33    28    1
    49    43    36   ar
    50    47    45    1
    51    43    33    1
    52    30    44    1
