@<TRIPOS>MOLECULE
*****
 36 39 0 0 0
SMALL
GASTEIGER

@<TRIPOS>ATOM
      1 C          62.8832   85.5475   12.7778 C.3     1  UNL1        0.1547
      2 C          62.9568   84.0725   12.5155 C.ar    1  UNL1        0.0007
      3 C          62.4815   83.1011   13.5549 C.ar    1  UNL1       -0.0025
      4 C          62.5552   81.6261   13.2926 C.ar    1  UNL1       -0.0003
      5 C          63.1042   81.1224   11.9906 C.ar    1  UNL1       -0.0000
      6 C          63.5795   82.0938   10.9511 C.ar    1  UNL1       -0.0003
      7 C          63.5058   83.5689   11.2136 C.ar    1  UNL1       -0.0025
      8 C          62.3817   86.4750   11.7108 C.2     1  UNL1        0.2457
      9 O          63.0474   87.8022   11.4973 O.2     1  UNL1       -0.2729
     10 N          61.2148   86.0753   10.8574 N.am    1  UNL1       -0.2680
     11 H          60.7779   85.2042   10.9975 H       1  UNL1        0.1563
     12 C          60.7134   87.0028    9.7904 C.ar    1  UNL1        0.1342
     13 C          60.2235   86.4494    8.4852 C.ar    1  UNL1        0.0345
     14 C          59.7221   87.3768    7.4182 C.ar    1  UNL1        0.0045
     15 C          59.7106   88.8577    7.6566 C.ar    1  UNL1        0.0223
     16 C          60.2005   89.4112    8.9618 C.ar    1  UNL1        0.1004
     17 N          60.7019   88.4837   10.0287 N.ar    1  UNL1       -0.2290
     18 C          59.2092   89.7852    6.5896 C.ar    1  UNL1        0.0411
     19 C          57.7727   90.0104    6.2208 C.ar    1  UNL1        0.1217
     20 N          57.7319   91.0147    5.1074 N.ar    1  UNL1       -0.1676
     21 N          59.1432   91.4102    4.7880 N.ar    1  UNL1       -0.2473
     22 C          59.5670   92.3930    3.7370 C.3     1  UNL1        0.1538
     23 C          60.0562   90.6504    5.7040 C.ar    1  UNL1        0.0967
     24 N          63.3109   86.0951   14.1072 N.3     1  UNL1       -0.2875
     25 H          62.4799   86.4969   14.5413 H       1  UNL1        0.1239
     26 C          64.3845   87.1403   14.1775 C.3     1  UNL1        0.0735
     27 C          63.3505   88.5165   16.1235 C.3     1  UNL1        0.0061
     28 C          64.1023   88.4628   14.8266 C.3     1  UNL1        0.0381
     29 C          64.5720   89.7315   14.1789 C.ar    1  UNL1       -0.0211
     30 C          65.7782   90.4449   14.7139 C.ar    1  UNL1       -0.0035
     31 C          66.2478   91.7137   14.0661 C.ar    1  UNL1        0.0100
     32 C          65.5112   92.2692   12.8834 C.ar    1  UNL1        0.0684
     33 C          64.3050   91.5558   12.3484 C.ar    1  UNL1        0.0100
     34 C          63.8354   90.2871   12.9961 C.ar    1  UNL1       -0.0035
     35 C          65.9809   93.5380   12.2356 C.1     1  UNL1        0.1004
     36 N          66.4504   94.8068   11.5878 N.1     1  UNL1       -0.1908
@<TRIPOS>BOND
     1    28    27    1
     2    28    26    1
     3    26    24    1
     4     1    24    1
     5     1     8    1
     6     8     9    2
     7     8    10   am
     8    10    12    1
     9    12    13   ar
    10    13    14   ar
    11    14    15   ar
    12    15    18    1
    13    18    19   ar
    14    19    20   ar
    15    20    21   ar
    16    21    22    1
    17    21    23   ar
    18    15    16   ar
    19    16    17   ar
    20     1     2    1
    21     2     3   ar
    22     3     4   ar
    23     4     5   ar
    24     5     6   ar
    25     6     7   ar
    26    28    29    1
    27    29    30   ar
    28    30    31   ar
    29    31    32   ar
    30    32    35    1
    31    35    36    3
    32    32    33   ar
    33    33    34   ar
    34    17    12   ar
    35     7     2   ar
    36    34    29   ar
    37    23    18   ar
    38    24    25    1
    39    10    11    1
@<TRIPOS>MOLECULE
*****
 36 39 0 0 0
SMALL
GASTEIGER

@<TRIPOS>ATOM
      1 C          59.5381   89.1678    7.5424 C.3     1  UNL1        0.1547
      2 C          59.2515   90.0964    6.3998 C.ar    1  UNL1        0.0007
      3 C          57.8347   90.4554    6.0623 C.ar    1  UNL1       -0.0025
      4 C          57.5481   91.3840    4.9198 C.ar    1  UNL1       -0.0003
      5 C          58.6783   91.9537    4.1147 C.ar    1  UNL1       -0.0000
      6 C          60.0951   91.5948    4.4522 C.ar    1  UNL1       -0.0003
      7 C          60.3817   90.6661    5.5948 C.ar    1  UNL1       -0.0025
      8 C          60.2683   89.6705    8.7525 C.2     1  UNL1        0.2457
      9 O          59.5214   90.3989    9.8302 O.2     1  UNL1       -0.2729
     10 N          61.7452   89.4447    8.8848 N.am    1  UNL1       -0.2680
     11 H          62.2354   88.9666    8.1774 H       1  UNL1        0.1563
     12 C          62.4754   89.9474   10.0949 C.ar    1  UNL1        0.1342
     13 C          62.5303   89.1111   11.3388 C.ar    1  UNL1        0.0345
     14 C          63.2604   89.6138   12.5488 C.ar    1  UNL1        0.0045
     15 C          63.9357   90.9528   12.5148 C.ar    1  UNL1        0.0223
     16 C          63.8808   91.7891   11.2708 C.ar    1  UNL1        0.1004
     17 N          63.1506   91.2864   10.0608 N.ar    1  UNL1       -0.2290
     18 C          64.6659   91.4555   13.7249 C.ar    1  UNL1        0.0411
     19 C          64.2369   91.2765   15.1511 C.ar    1  UNL1        0.1217
     20 N          65.2590   91.9358   16.0289 N.ar    1  UNL1       -0.1676
     21 N          66.3198   92.5222   15.1452 N.ar    1  UNL1       -0.2473
     22 C          67.5340   93.2736   15.6047 C.3     1  UNL1        0.1538
     23 C          65.9532   92.2254   13.7213 C.ar    1  UNL1        0.0967
     24 N          59.0945   87.7364    7.4750 N.3     1  UNL1       -0.2875
     25 H          58.0746   87.7438    7.4772 H       1  UNL1        0.1239
     26 C          59.5228   86.7677    8.5370 C.3     1  UNL1        0.0735
     27 C          61.1498   85.5025    6.9552 C.3     1  UNL1        0.0061
     28 C          60.7504   85.9294    8.3366 C.3     1  UNL1        0.0381
     29 C          61.5787   85.5179    9.5175 C.ar    1  UNL1       -0.0211
     30 C          62.7414   84.5887    9.3309 C.ar    1  UNL1       -0.0035
     31 C          63.5697   84.1773   10.5119 C.ar    1  UNL1        0.0100
     32 C          63.2352   84.6949   11.8794 C.ar    1  UNL1        0.0684
     33 C          62.0725   85.6241   12.0660 C.ar    1  UNL1        0.0100
     34 C          61.2443   86.0355   10.8851 C.ar    1  UNL1       -0.0035
     35 C          64.0635   84.2834   13.0604 C.1     1  UNL1        0.1004
     36 N          64.8917   83.8719   14.2414 N.1     1  UNL1       -0.1908
@<TRIPOS>BOND
     1    28    27    1
     2    28    26    1
     3    26    24    1
     4     1    24    1
     5     1     8    1
     6     8     9    2
     7     8    10   am
     8    10    12    1
     9    12    13   ar
    10    13    14   ar
    11    14    15   ar
    12    15    18    1
    13    18    19   ar
    14    19    20   ar
    15    20    21   ar
    16    21    22    1
    17    21    23   ar
    18    15    16   ar
    19    16    17   ar
    20     1     2    1
    21     2     3   ar
    22     3     4   ar
    23     4     5   ar
    24     5     6   ar
    25     6     7   ar
    26    28    29    1
    27    29    30   ar
    28    30    31   ar
    29    31    32   ar
    30    32    35    1
    31    35    36    3
    32    32    33   ar
    33    33    34   ar
    34    17    12   ar
    35     7     2   ar
    36    34    29   ar
    37    23    18   ar
    38    24    25    1
    39    10    11    1
@<TRIPOS>MOLECULE
*****
 36 39 0 0 0
SMALL
GASTEIGER

@<TRIPOS>ATOM
      1 C          63.0811   83.3474   11.5768 C.3     1  UNL1        0.1547
      2 C          62.6588   82.1416   12.3627 C.ar    1  UNL1        0.0007
      3 C          61.9625   82.3113   13.6804 C.ar    1  UNL1       -0.0025
      4 C          61.5402   81.1055   14.4662 C.ar    1  UNL1       -0.0003
      5 C          61.8142   79.7299   13.9344 C.ar    1  UNL1       -0.0000
      6 C          62.5105   79.5602   12.6166 C.ar    1  UNL1       -0.0003
      7 C          62.9328   80.7661   11.8308 C.ar    1  UNL1       -0.0025
      8 C          63.5997   84.5622   12.2878 C.2     1  UNL1        0.2457
      9 O          64.8943   84.4940   13.0424 O.2     1  UNL1       -0.2729
     10 N          62.8237   85.8451   12.2443 N.am    1  UNL1       -0.2680
     11 H          61.9740   85.8898   11.7491 H       1  UNL1        0.1563
     12 C          63.3422   87.0599   12.9553 C.ar    1  UNL1        0.1342
     13 C          63.2240   88.4112   12.3151 C.ar    1  UNL1        0.0345
     14 C          63.7425   89.6259   13.0261 C.ar    1  UNL1        0.0045
     15 C          64.3793   89.4892   14.3774 C.ar    1  UNL1        0.0223
     16 C          64.4975   88.1379   15.0176 C.ar    1  UNL1        0.1004
     17 N          63.9790   86.9232   14.3066 N.ar    1  UNL1       -0.2290
     18 C          64.8979   90.7040   15.0884 C.ar    1  UNL1        0.0411
     19 C          64.1684   91.4903   16.1371 C.ar    1  UNL1        0.1217
     20 N          65.0565   92.6180   16.5724 N.ar    1  UNL1       -0.1676
     21 N          66.3349   92.5286   15.7927 N.ar    1  UNL1       -0.2473
     22 C          67.5058   93.4589   15.9097 C.3     1  UNL1        0.1538
     23 C          66.2368   91.3457   14.8756 C.ar    1  UNL1        0.0967
     24 N          62.9849   83.3385   10.0799 N.3     1  UNL1       -0.2875
     25 H          63.4558   82.4923    9.7596 H       1  UNL1        0.1239
     26 C          63.5524   84.4770    9.2851 C.3     1  UNL1        0.0735
     27 C          62.4735   84.9523    6.9700 C.3     1  UNL1        0.0061
     28 C          62.6540   85.3065    8.4163 C.3     1  UNL1        0.0381
     29 C          61.9361   86.4901    8.9938 C.ar    1  UNL1       -0.0211
     30 C          60.4857   86.3817    9.3610 C.ar    1  UNL1       -0.0035
     31 C          59.7678   87.5654    9.9385 C.ar    1  UNL1        0.0100
     32 C          60.5002   88.8574   10.1488 C.ar    1  UNL1        0.0684
     33 C          61.9505   88.9658    9.7817 C.ar    1  UNL1        0.0100
     34 C          62.6684   87.7822    9.2042 C.ar    1  UNL1       -0.0035
     35 C          59.7822   90.0411   10.7264 C.1     1  UNL1        0.1004
     36 N          59.0643   91.2248   11.3038 N.1     1  UNL1       -0.1908
@<TRIPOS>BOND
     1    28    27    1
     2    28    26    1
     3    26    24    1
     4     1    24    1
     5     1     8    1
     6     8     9    2
     7     8    10   am
     8    10    12    1
     9    12    13   ar
    10    13    14   ar
    11    14    15   ar
    12    15    18    1
    13    18    19   ar
    14    19    20   ar
    15    20    21   ar
    16    21    22    1
    17    21    23   ar
    18    15    16   ar
    19    16    17   ar
    20     1     2    1
    21     2     3   ar
    22     3     4   ar
    23     4     5   ar
    24     5     6   ar
    25     6     7   ar
    26    28    29    1
    27    29    30   ar
    28    30    31   ar
    29    31    32   ar
    30    32    35    1
    31    35    36    3
    32    32    33   ar
    33    33    34   ar
    34    17    12   ar
    35     7     2   ar
    36    34    29   ar
    37    23    18   ar
    38    24    25    1
    39    10    11    1
@<TRIPOS>MOLECULE
*****
 36 39 0 0 0
SMALL
GASTEIGER

@<TRIPOS>ATOM
      1 C          64.0945   90.2696   15.1938 C.3     1  UNL1        0.1547
      2 C          65.2463   91.2291   15.1442 C.ar    1  UNL1        0.0007
      3 C          65.5073   92.1481   16.3007 C.ar    1  UNL1       -0.0025
      4 C          66.6591   93.1076   16.2511 C.ar    1  UNL1       -0.0003
      5 C          67.5501   93.1482   15.0450 C.ar    1  UNL1       -0.0000
      6 C          67.2892   92.2293   13.8885 C.ar    1  UNL1       -0.0003
      7 C          66.1373   91.2697   13.9382 C.ar    1  UNL1       -0.0025
      8 C          63.5335   89.7049   13.9223 C.2     1  UNL1        0.2457
      9 O          62.8019   90.5973   12.9640 O.2     1  UNL1       -0.2729
     10 N          63.7040   88.2479   13.6094 N.am    1  UNL1       -0.2680
     11 H          64.1842   87.6622   14.2384 H       1  UNL1        0.1563
     12 C          63.1430   87.6832   12.3379 C.ar    1  UNL1        0.1342
     13 C          62.8125   88.5952   11.1938 C.ar    1  UNL1        0.0345
     14 C          62.2515   88.0305    9.9225 C.ar    1  UNL1        0.0045
     15 C          62.0210   86.5538    9.7953 C.ar    1  UNL1        0.0223
     16 C          62.3515   85.6418   10.9394 C.ar    1  UNL1        0.1004
     17 N          62.9125   86.2065   12.2107 N.ar    1  UNL1       -0.2290
     18 C          61.4600   85.9891    8.5238 C.ar    1  UNL1        0.0411
     19 C          60.0535   86.1561    8.0301 C.ar    1  UNL1        0.1217
     20 N          59.9312   85.4285    6.7241 N.ar    1  UNL1       -0.1676
     21 N          61.2622   84.8118    6.4107 N.ar    1  UNL1       -0.2473
     22 C          61.5906   83.9924    5.1979 C.3     1  UNL1        0.1538
     23 C          62.2070   85.1582    7.5230 C.ar    1  UNL1        0.0967
     24 N          63.5036   89.8747   16.5147 N.3     1  UNL1       -0.2875
     25 H          64.2810   89.5971   17.1138 H       1  UNL1        0.1239
     26 C          62.4891   88.7720   16.5829 C.3     1  UNL1        0.0735
     27 C          62.9146   87.3489   18.7144 C.3     1  UNL1        0.0061
     28 C          62.8468   87.4621   17.2203 C.3     1  UNL1        0.0381
     29 C          63.1366   86.2655   16.3635 C.ar    1  UNL1       -0.0211
     30 C          64.4573   86.1475   15.6621 C.ar    1  UNL1       -0.0035
     31 C          64.7471   84.9508   14.8053 C.ar    1  UNL1        0.0100
     32 C          63.7163   83.8723   14.6500 C.ar    1  UNL1        0.0684
     33 C          62.3957   83.9903   15.3514 C.ar    1  UNL1        0.0100
     34 C          62.1058   85.1869   16.2082 C.ar    1  UNL1       -0.0035
     35 C          64.0062   82.6756   13.7932 C.1     1  UNL1        0.1004
     36 N          64.2960   81.4789   12.9365 N.1     1  UNL1       -0.1908
@<TRIPOS>BOND
     1    28    27    1
     2    28    26    1
     3    26    24    1
     4     1    24    1
     5     1     8    1
     6     8     9    2
     7     8    10   am
     8    10    12    1
     9    12    13   ar
    10    13    14   ar
    11    14    15   ar
    12    15    18    1
    13    18    19   ar
    14    19    20   ar
    15    20    21   ar
    16    21    22    1
    17    21    23   ar
    18    15    16   ar
    19    16    17   ar
    20     1     2    1
    21     2     3   ar
    22     3     4   ar
    23     4     5   ar
    24     5     6   ar
    25     6     7   ar
    26    28    29    1
    27    29    30   ar
    28    30    31   ar
    29    31    32   ar
    30    32    35    1
    31    35    36    3
    32    32    33   ar
    33    33    34   ar
    34    17    12   ar
    35     7     2   ar
    36    34    29   ar
    37    23    18   ar
    38    24    25    1
    39    10    11    1
@<TRIPOS>MOLECULE
*****
 36 39 0 0 0
SMALL
GASTEIGER

@<TRIPOS>ATOM
      1 C          61.5087   87.1641   10.4892 C.3     1  UNL1        0.1547
      2 C          60.5969   87.4652    9.3369 C.ar    1  UNL1        0.0007
      3 C          59.9462   86.3439    8.5825 C.ar    1  UNL1       -0.0025
      4 C          59.0343   86.6450    7.4302 C.ar    1  UNL1       -0.0003
      5 C          58.7731   88.0675    7.0323 C.ar    1  UNL1       -0.0000
      6 C          59.4238   89.1889    7.7868 C.ar    1  UNL1       -0.0003
      7 C          60.3357   88.8877    8.9391 C.ar    1  UNL1       -0.0025
      8 C          62.4775   88.2033   10.9705 C.2     1  UNL1        0.2457
      9 O          63.2690   89.0062    9.9810 O.2     1  UNL1       -0.2729
     10 N          62.6549   88.4396   12.4410 N.am    1  UNL1       -0.2680
     11 H          62.1354   87.9126   13.0904 H       1  UNL1        0.1563
     12 C          63.6237   89.4788   12.9223 C.ar    1  UNL1        0.1342
     13 C          64.3904   89.2583   14.1925 C.ar    1  UNL1        0.0345
     14 C          65.3592   90.2975   14.6737 C.ar    1  UNL1        0.0045
     15 C          65.5612   91.5571   13.8846 C.ar    1  UNL1        0.0223
     16 C          64.7944   91.7776   12.6144 C.ar    1  UNL1        0.1004
     17 N          63.8257   90.7384   12.1333 N.ar    1  UNL1       -0.2290
     18 C          66.5300   92.5963   14.3659 C.ar    1  UNL1        0.0411
     19 C          66.5348   94.0449   13.9764 C.ar    1  UNL1        0.1217
     20 N          67.6718   94.7133   14.6908 N.ar    1  UNL1       -0.1676
     21 N          68.3697   93.6778   15.5220 N.ar    1  UNL1       -0.2473
     22 C          69.5637   93.9098   16.3998 C.3     1  UNL1        0.1538
     23 C          67.6640   92.3695   15.3211 C.ar    1  UNL1        0.0967
     24 N          61.4519   85.8238   11.1603 N.3     1  UNL1       -0.2875
     25 H          61.5118   85.9943   12.1641 H       1  UNL1        0.1239
     26 C          62.4781   84.7788   10.8366 C.3     1  UNL1        0.0735
     27 C          64.1248   82.9368   11.6398 C.3     1  UNL1        0.0061
     28 C          63.2464   84.1148   11.9406 C.3     1  UNL1        0.0381
     29 C          63.1362   84.6288   13.3455 C.ar    1  UNL1       -0.0211
     30 C          62.0724   84.0949   14.2582 C.ar    1  UNL1       -0.0035
     31 C          61.9623   84.6090   15.6631 C.ar    1  UNL1        0.0100
     32 C          62.9160   85.6569   16.1552 C.ar    1  UNL1        0.0684
     33 C          63.9798   86.1909   15.2424 C.ar    1  UNL1        0.0100
     34 C          64.0900   85.6768   13.8376 C.ar    1  UNL1       -0.0035
     35 C          62.8059   86.1710   17.5601 C.1     1  UNL1        0.1004
     36 N          62.6958   86.6850   18.9649 N.1     1  UNL1       -0.1908
@<TRIPOS>BOND
     1    28    27    1
     2    28    26    1
     3    26    24    1
     4     1    24    1
     5     1     8    1
     6     8     9    2
     7     8    10   am
     8    10    12    1
     9    12    13   ar
    10    13    14   ar
    11    14    15   ar
    12    15    18    1
    13    18    19   ar
    14    19    20   ar
    15    20    21   ar
    16    21    22    1
    17    21    23   ar
    18    15    16   ar
    19    16    17   ar
    20     1     2    1
    21     2     3   ar
    22     3     4   ar
    23     4     5   ar
    24     5     6   ar
    25     6     7   ar
    26    28    29    1
    27    29    30   ar
    28    30    31   ar
    29    31    32   ar
    30    32    35    1
    31    35    36    3
    32    32    33   ar
    33    33    34   ar
    34    17    12   ar
    35     7     2   ar
    36    34    29   ar
    37    23    18   ar
    38    24    25    1
    39    10    11    1
@<TRIPOS>MOLECULE
*****
 36 39 0 0 0
SMALL
GASTEIGER

@<TRIPOS>ATOM
      1 C          63.7788   90.5672   13.4137 C.3     1  UNL1        0.1547
      2 C          64.9430   91.2947   14.0182 C.ar    1  UNL1        0.0007
      3 C          64.9127   91.6869   15.4657 C.ar    1  UNL1       -0.0025
      4 C          66.0769   92.4144   16.0701 C.ar    1  UNL1       -0.0003
      5 C          67.2714   92.7497   15.2270 C.ar    1  UNL1       -0.0000
      6 C          67.3017   92.3575   13.7795 C.ar    1  UNL1       -0.0003
      7 C          66.1374   91.6299   13.1751 C.ar    1  UNL1       -0.0025
      8 C          63.5821   89.1060   13.6900 C.2     1  UNL1        0.2457
      9 O          63.4118   88.6258   15.1008 O.2     1  UNL1       -0.2729
     10 N          63.5556   88.1251   12.5555 N.am    1  UNL1       -0.2680
     11 H          63.6674   88.4403   11.6296 H       1  UNL1        0.1563
     12 C          63.3589   86.6639   12.8318 C.ar    1  UNL1        0.1342
     13 C          62.6775   85.7939   11.8176 C.ar    1  UNL1        0.0345
     14 C          62.4808   84.3328   12.0939 C.ar    1  UNL1        0.0045
     15 C          62.9656   83.7417   13.3844 C.ar    1  UNL1        0.0223
     16 C          63.6470   84.6116   14.3987 C.ar    1  UNL1        0.1004
     17 N          63.8437   86.0727   14.1224 N.ar    1  UNL1       -0.2290
     18 C          62.7689   82.2805   13.6607 C.ar    1  UNL1        0.0411
     19 C          63.8470   81.2945   14.0009 C.ar    1  UNL1        0.1217
     20 N          63.2040   79.9534   14.1957 N.ar    1  UNL1       -0.1676
     21 N          61.7285   80.1105   13.9760 N.ar    1  UNL1       -0.2473
     22 C          60.7021   79.0207   14.0704 C.3     1  UNL1        0.1538
     23 C          61.4596   81.5487   13.6454 C.ar    1  UNL1        0.0967
     24 N          62.8112   91.3008   12.5330 N.3     1  UNL1       -0.2875
     25 H          61.9172   91.3129   13.0238 H       1  UNL1        0.1239
     26 C          62.5363   90.8048   11.1444 C.3     1  UNL1        0.0735
     27 C          59.9513   90.7672   11.4012 C.3     1  UNL1        0.0061
     28 C          61.2071   90.1921   10.8163 C.3     1  UNL1        0.0381
     29 C          61.1336   89.0042    9.9033 C.ar    1  UNL1       -0.0211
     30 C          62.3473   88.1504    9.6843 C.ar    1  UNL1       -0.0035
     31 C          62.2738   86.9625    8.7713 C.ar    1  UNL1        0.0100
     32 C          60.9867   86.6285    8.0773 C.ar    1  UNL1        0.0684
     33 C          59.7730   87.4823    8.2963 C.ar    1  UNL1        0.0100
     34 C          59.8464   88.6701    9.2093 C.ar    1  UNL1       -0.0035
     35 C          60.9132   85.4406    7.1643 C.1     1  UNL1        0.1004
     36 N          60.8397   84.2528    6.2513 N.1     1  UNL1       -0.1908
@<TRIPOS>BOND
     1    28    27    1
     2    28    26    1
     3    26    24    1
     4     1    24    1
     5     1     8    1
     6     8     9    2
     7     8    10   am
     8    10    12    1
     9    12    13   ar
    10    13    14   ar
    11    14    15   ar
    12    15    18    1
    13    18    19   ar
    14    19    20   ar
    15    20    21   ar
    16    21    22    1
    17    21    23   ar
    18    15    16   ar
    19    16    17   ar
    20     1     2    1
    21     2     3   ar
    22     3     4   ar
    23     4     5   ar
    24     5     6   ar
    25     6     7   ar
    26    28    29    1
    27    29    30   ar
    28    30    31   ar
    29    31    32   ar
    30    32    35    1
    31    35    36    3
    32    32    33   ar
    33    33    34   ar
    34    17    12   ar
    35     7     2   ar
    36    34    29   ar
    37    23    18   ar
    38    24    25    1
    39    10    11    1
@<TRIPOS>MOLECULE
*****
 36 39 0 0 0
SMALL
GASTEIGER

@<TRIPOS>ATOM
      1 C          61.1581   87.8090    9.6075 C.3     1  UNL1        0.1547
      2 C          61.6192   86.6522    8.7714 C.ar    1  UNL1        0.0007
      3 C          62.9971   86.0911    8.9622 C.ar    1  UNL1       -0.0025
      4 C          63.4582   84.9342    8.1261 C.ar    1  UNL1       -0.0003
      5 C          62.5413   84.3384    7.0992 C.ar    1  UNL1       -0.0000
      6 C          61.1633   84.8996    6.9085 C.ar    1  UNL1       -0.0003
      7 C          60.7023   86.0565    7.7446 C.ar    1  UNL1       -0.0025
      8 C          62.0771   88.4086   10.6304 C.2     1  UNL1        0.2457
      9 O          62.5848   87.5699   11.7656 O.2     1  UNL1       -0.2729
     10 N          62.4882   89.8467   10.5179 N.am    1  UNL1       -0.2680
     11 H          62.1550   90.3971    9.7728 H       1  UNL1        0.1563
     12 C          63.4072   90.4462   11.5408 C.ar    1  UNL1        0.1342
     13 C          64.2442   91.6401   11.1889 C.ar    1  UNL1        0.0345
     14 C          65.1631   92.2396   12.2117 C.ar    1  UNL1        0.0045
     15 C          65.2450   91.6451   13.5864 C.ar    1  UNL1        0.0223
     16 C          64.4080   90.4512   13.9383 C.ar    1  UNL1        0.1004
     17 N          63.4891   89.8517   12.9155 N.ar    1  UNL1       -0.2290
     18 C          66.1640   92.2446   14.6093 C.ar    1  UNL1        0.0411
     19 C          65.8706   92.4057   16.0715 C.ar    1  UNL1        0.1217
     20 N          67.0629   93.0489   16.7154 N.ar    1  UNL1       -0.1676
     21 N          68.0932   93.2854   15.6511 N.ar    1  UNL1       -0.2473
     22 C          69.4422   93.9094   15.8531 C.3     1  UNL1        0.1538
     23 C          67.5376   92.7883   14.3495 C.ar    1  UNL1        0.0967
     24 N          59.7781   88.3664    9.4208 N.3     1  UNL1       -0.2875
     25 H          59.1841   87.5904    9.1287 H       1  UNL1        0.1239
     26 C          59.5452   89.4812    8.4446 C.3     1  UNL1        0.0735
     27 C          58.7054   87.8037    6.6472 C.3     1  UNL1        0.0061
     28 C          59.2026   89.1694    7.0179 C.3     1  UNL1        0.0381
     29 C          59.3573   90.2234    5.9619 C.ar    1  UNL1       -0.0211
     30 C          60.7166   90.5415    5.4132 C.ar    1  UNL1       -0.0035
     31 C          60.8712   91.5956    4.3571 C.ar    1  UNL1        0.0100
     32 C          59.6666   92.3315    3.8499 C.ar    1  UNL1        0.0684
     33 C          58.3073   92.0133    4.3986 C.ar    1  UNL1        0.0100
     34 C          58.1526   90.9593    5.4546 C.ar    1  UNL1       -0.0035
     35 C          59.8212   93.3855    2.7939 C.1     1  UNL1        0.1004
     36 N          59.9759   94.4395    1.7379 N.1     1  UNL1       -0.1908
@<TRIPOS>BOND
     1    28    27    1
     2    28    26    1
     3    26    24    1
     4     1    24    1
     5     1     8    1
     6     8     9    2
     7     8    10   am
     8    10    12    1
     9    12    13   ar
    10    13    14   ar
    11    14    15   ar
    12    15    18    1
    13    18    19   ar
    14    19    20   ar
    15    20    21   ar
    16    21    22    1
    17    21    23   ar
    18    15    16   ar
    19    16    17   ar
    20     1     2    1
    21     2     3   ar
    22     3     4   ar
    23     4     5   ar
    24     5     6   ar
    25     6     7   ar
    26    28    29    1
    27    29    30   ar
    28    30    31   ar
    29    31    32   ar
    30    32    35    1
    31    35    36    3
    32    32    33   ar
    33    33    34   ar
    34    17    12   ar
    35     7     2   ar
    36    34    29   ar
    37    23    18   ar
    38    24    25    1
    39    10    11    1
@<TRIPOS>MOLECULE
*****
 36 39 0 0 0
SMALL
GASTEIGER

@<TRIPOS>ATOM
      1 C          61.4451   87.2412   10.5192 C.3     1  UNL1        0.1547
      2 C          60.5662   87.5486    9.3432 C.ar    1  UNL1        0.0007
      3 C          59.9160   86.4324    8.5807 C.ar    1  UNL1       -0.0025
      4 C          59.0371   86.7398    7.4047 C.ar    1  UNL1       -0.0003
      5 C          58.8084   88.1635    6.9911 C.ar    1  UNL1       -0.0000
      6 C          59.4586   89.2797    7.7536 C.ar    1  UNL1       -0.0003
      7 C          60.3375   88.9722    8.9297 C.ar    1  UNL1       -0.0025
      8 C          62.4262   88.2642   11.0100 C.2     1  UNL1        0.2457
      9 O          63.1569   89.1333   10.0299 O.2     1  UNL1       -0.2729
     10 N          62.6766   88.4180   12.4809 N.am    1  UNL1       -0.2680
     11 H          62.1970   87.8476   13.1242 H       1  UNL1        0.1563
     12 C          63.6578   89.4410   12.9718 C.ar    1  UNL1        0.1342
     13 C          63.8272   90.7340   12.2304 C.ar    1  UNL1        0.0345
     14 C          64.8083   91.7569   12.7213 C.ar    1  UNL1        0.0045
     15 C          65.6200   91.4869   13.9535 C.ar    1  UNL1        0.0223
     16 C          65.4506   90.1940   14.6948 C.ar    1  UNL1        0.1004
     17 N          64.4695   89.1711   14.2039 N.ar    1  UNL1       -0.2290
     18 C          66.6011   92.5099   14.4443 C.ar    1  UNL1        0.0411
     19 C          66.5795   93.9758   14.1267 C.ar    1  UNL1        0.1217
     20 N          67.7411   94.6185   14.8250 N.ar    1  UNL1       -0.1676
     21 N          68.4806   93.5499   15.5742 N.ar    1  UNL1       -0.2473
     22 C          69.7090   93.7494   16.4116 C.3     1  UNL1        0.1538
     23 C          67.7760   92.2467   15.3389 C.ar    1  UNL1        0.0967
     24 N          61.3429   85.9107   11.2044 N.3     1  UNL1       -0.2875
     25 H          61.1011   86.0985   12.1774 H       1  UNL1        0.1239
     26 C          62.5220   84.9838   11.2223 C.3     1  UNL1        0.0735
     27 C          62.7101   84.3695   13.7397 C.3     1  UNL1        0.0061
     28 C          62.6464   83.9492   12.3012 C.3     1  UNL1        0.0381
     29 C          62.7071   82.4942   11.9417 C.ar    1  UNL1       -0.0211
     30 C          63.1506   82.0783   10.5705 C.ar    1  UNL1       -0.0035
     31 C          63.2113   80.6232   10.2110 C.ar    1  UNL1        0.0100
     32 C          62.8284   79.5841   11.2228 C.ar    1  UNL1        0.0684
     33 C          62.3849   80.0000   12.5940 C.ar    1  UNL1        0.0100
     34 C          62.3242   81.4550   12.9535 C.ar    1  UNL1       -0.0035
     35 C          62.8891   78.1290   10.8633 C.1     1  UNL1        0.1004
     36 N          62.9498   76.6740   10.5039 N.1     1  UNL1       -0.1908
@<TRIPOS>BOND
     1    28    27    1
     2    28    26    1
     3    26    24    1
     4     1    24    1
     5     1     8    1
     6     8     9    2
     7     8    10   am
     8    10    12    1
     9    12    13   ar
    10    13    14   ar
    11    14    15   ar
    12    15    18    1
    13    18    19   ar
    14    19    20   ar
    15    20    21   ar
    16    21    22    1
    17    21    23   ar
    18    15    16   ar
    19    16    17   ar
    20     1     2    1
    21     2     3   ar
    22     3     4   ar
    23     4     5   ar
    24     5     6   ar
    25     6     7   ar
    26    28    29    1
    27    29    30   ar
    28    30    31   ar
    29    31    32   ar
    30    32    35    1
    31    35    36    3
    32    32    33   ar
    33    33    34   ar
    34    17    12   ar
    35     7     2   ar
    36    34    29   ar
    37    23    18   ar
    38    24    25    1
    39    10    11    1
@<TRIPOS>MOLECULE
*****
 36 39 0 0 0
SMALL
GASTEIGER

@<TRIPOS>ATOM
      1 C          63.6911   94.4295   -3.1254 C.3     1  UNL1        0.1547
      2 C          64.3069   93.9094   -4.3904 C.ar    1  UNL1        0.0007
      3 C          64.2266   92.4478   -4.7179 C.ar    1  UNL1       -0.0025
      4 C          64.8423   91.9277   -5.9829 C.ar    1  UNL1       -0.0003
      5 C          65.5384   92.8692   -6.9205 C.ar    1  UNL1       -0.0000
      6 C          65.6187   94.3308   -6.5931 C.ar    1  UNL1       -0.0003
      7 C          65.0029   94.8509   -5.3280 C.ar    1  UNL1       -0.0025
      8 C          62.2392   94.8054   -3.0973 C.2     1  UNL1        0.2457
      9 O          61.8344   96.2443   -3.2226 O.2     1  UNL1       -0.2729
     10 N          61.1922   93.7423   -2.9439 N.am    1  UNL1       -0.2680
     11 H          61.4578   92.7979   -2.8617 H       1  UNL1        0.1563
     12 C          59.7402   94.1182   -2.9158 C.ar    1  UNL1        0.1342
     13 C          59.0059   94.1771   -1.6092 C.ar    1  UNL1        0.0345
     14 C          57.5541   94.5529   -1.5812 C.ar    1  UNL1        0.0045
     15 C          56.8365   94.8698   -2.8597 C.ar    1  UNL1        0.0223
     16 C          57.5708   94.8109   -4.1663 C.ar    1  UNL1        0.1004
     17 N          59.0227   94.4351   -4.1944 N.ar    1  UNL1       -0.2290
     18 C          55.3846   95.2457   -2.8316 C.ar    1  UNL1        0.0411
     19 C          54.4797   95.1795   -1.6372 C.ar    1  UNL1        0.1217
     20 N          53.1185   95.6466   -2.0603 N.ar    1  UNL1       -0.1676
     21 N          53.1822   96.0015   -3.5164 N.ar    1  UNL1       -0.2473
     22 C          52.0450   96.5142   -4.3494 C.3     1  UNL1        0.1538
     23 C          54.5827   95.7537   -3.9930 C.ar    1  UNL1        0.0967
     24 N          64.5273   94.5738   -1.8884 N.3     1  UNL1       -0.2875
     25 H          65.0353   93.6969   -1.7725 H       1  UNL1        0.1239
     26 C          63.8735   94.8728   -0.5720 C.3     1  UNL1        0.0735
     27 C          65.3872   93.3631    0.9044 C.3     1  UNL1        0.0061
     28 C          64.0346   93.9235    0.5782 C.3     1  UNL1        0.0381
     29 C          62.8431   93.5345    1.4022 C.ar    1  UNL1       -0.0211
     30 C          62.9641   92.4487    2.4299 C.ar    1  UNL1       -0.0035
     31 C          61.7725   92.0597    3.2539 C.ar    1  UNL1        0.0100
     32 C          60.4600   92.7567    3.0501 C.ar    1  UNL1        0.0684
     33 C          60.3390   93.8425    2.0224 C.ar    1  UNL1        0.0100
     34 C          61.5305   94.2315    1.1984 C.ar    1  UNL1       -0.0035
     35 C          59.2684   92.3677    3.8741 C.1     1  UNL1        0.1004
     36 N          58.0768   91.9788    4.6981 N.1     1  UNL1       -0.1908
@<TRIPOS>BOND
     1    28    27    1
     2    28    26    1
     3    26    24    1
     4     1    24    1
     5     1     8    1
     6     8     9    2
     7     8    10   am
     8    10    12    1
     9    12    13   ar
    10    13    14   ar
    11    14    15   ar
    12    15    18    1
    13    18    19   ar
    14    19    20   ar
    15    20    21   ar
    16    21    22    1
    17    21    23   ar
    18    15    16   ar
    19    16    17   ar
    20     1     2    1
    21     2     3   ar
    22     3     4   ar
    23     4     5   ar
    24     5     6   ar
    25     6     7   ar
    26    28    29    1
    27    29    30   ar
    28    30    31   ar
    29    31    32   ar
    30    32    35    1
    31    35    36    3
    32    32    33   ar
    33    33    34   ar
    34    17    12   ar
    35     7     2   ar
    36    34    29   ar
    37    23    18   ar
    38    24    25    1
    39    10    11    1
