@<TRIPOS>MOLECULE
*****
 36 38 0 0 0
SMALL
GASTEIGER

@<TRIPOS>ATOM
      1 N          63.4031   84.0585   14.5327 N.3     1  UNL1       -0.1454
      2 S          63.2887   84.2718   13.0524 S.O2    1  UNL1        0.0639
      3 O          64.6204   83.6108   12.8542 O.2     1  UNL1       -0.1528
      4 O          61.9569   84.9329   13.2506 O.2     1  UNL1       -0.1528
      5 C          63.1743   84.4852   11.5721 C.ar    1  UNL1        0.1224
      6 C          63.9251   83.5959   10.6259 C.ar    1  UNL1        0.0230
      7 C          63.8107   83.8093    9.1456 C.ar    1  UNL1        0.0385
      8 C          62.9455   84.9120    8.6114 C.ar    1  UNL1        0.1444
      9 C          62.1946   85.8014    9.5576 C.ar    1  UNL1        0.0385
     10 C          62.3090   85.5880   11.0379 C.ar    1  UNL1        0.0230
     11 O          62.8311   85.1254    7.1311 O.3     1  UNL1       -0.4236
     12 C          61.5724   84.7385    6.4126 C.3     1  UNL1        0.5087
     13 F          60.2364   85.0649    7.0115 F       1  UNL1       -0.1550
     14 F          61.6497   84.0253    5.0953 F       1  UNL1       -0.1550
     15 C          62.5748   83.0036   15.2046 C.3     1  UNL1        0.1375
     16 O          60.9228   81.2902   14.1630 O.co2   1  UNL1       -0.5477
     17 C          62.3234   81.6954   14.5153 C.2     1  UNL1        0.0683
     18 O          63.4727   80.7923   14.1781 O.co2   1  UNL1       -0.5477
     19 C          64.3456   84.8999   15.3411 C.3     1  UNL1        0.1225
     20 C          63.9867   86.3173   15.6758 C.ar    1  UNL1       -0.0045
     21 C          63.2519   86.6249   16.9469 C.ar    1  UNL1       -0.0029
     22 C          62.8930   88.0423   17.2816 C.ar    1  UNL1       -0.0003
     23 C          63.2690   89.1523   16.3452 C.ar    1  UNL1        0.0001
     24 C          64.0038   88.8447   15.0742 C.ar    1  UNL1        0.0026
     25 C          64.3627   87.4273   14.7395 C.ar    1  UNL1       -0.0028
     26 C          64.3798   89.9547   14.1378 C.ar    1  UNL1        0.0343
     27 C          65.5513   90.8369   14.4525 C.ar    1  UNL1        0.0030
     28 C          65.9273   91.9468   13.5162 C.ar    1  UNL1        0.0002
     29 C          65.1316   92.1744   12.2651 C.ar    1  UNL1        0.0031
     30 C          63.9600   91.2923   11.9504 C.ar    1  UNL1        0.0372
     31 C          63.5841   90.1824   12.8868 C.ar    1  UNL1        0.1467
     32 O          62.4124   89.3001   12.5722 O.3     1  UNL1       -0.4045
     33 C          61.6625   89.4798   11.2856 C.3     1  UNL1        0.5753
     34 F          60.9125   89.6594    9.9990 F       1  UNL1       -0.1328
     35 F          62.7999   88.8529   10.5350 F       1  UNL1       -0.1328
     36 F          60.5251   90.1067   12.0361 F       1  UNL1       -0.1328
@<TRIPOS>UNITY_ATOM_ATTR
16 1
charge -1
@<TRIPOS>BOND
     1    16    17   ar
     2    17    18   ar
     3    17    15    1
     4    15     1    1
     5     1    19    1
     6    19    20    1
     7    20    21   ar
     8    21    22   ar
     9    22    23   ar
    10    23    24   ar
    11    24    26    1
    12    26    27   ar
    13    27    28   ar
    14    28    29   ar
    15    29    30   ar
    16    30    31   ar
    17    31    32    1
    18    32    33    1
    19    33    34    1
    20    33    35    1
    21    33    36    1
    22    24    25   ar
    23     1     2    1
    24     2     3    2
    25     2     4    2
    26     2     5    1
    27     5     6   ar
    28     6     7   ar
    29     7     8   ar
    30     8    11    1
    31    11    12    1
    32    12    13    1
    33    12    14    1
    34     8     9   ar
    35     9    10   ar
    36    25    20   ar
    37    10     5   ar
    38    31    26   ar
@<TRIPOS>MOLECULE
*****
 36 38 0 0 0
SMALL
GASTEIGER

@<TRIPOS>ATOM
      1 N          60.9207   88.9402   10.3496 N.3     1  UNL1       -0.1454
      2 S          62.0356   89.6741   11.0341 S.O2    1  UNL1        0.0639
      3 O          61.4482   89.3218   12.3685 O.2     1  UNL1       -0.1528
      4 O          62.6230   90.0264    9.6996 O.2     1  UNL1       -0.1528
      5 C          63.1505   90.4079   11.7185 C.ar    1  UNL1        0.1224
      6 C          63.8910   91.4922   10.9934 C.ar    1  UNL1        0.0230
      7 C          65.0059   92.2261   11.6779 C.ar    1  UNL1        0.0385
      8 C          65.3802   91.8757   13.0875 C.ar    1  UNL1        0.1444
      9 C          64.6396   90.7914   13.8127 C.ar    1  UNL1        0.0385
     10 C          63.5247   90.0575   13.1282 C.ar    1  UNL1        0.0230
     11 O          66.4951   92.6095   13.7720 O.3     1  UNL1       -0.4236
     12 C          67.7728   91.8954   14.1001 C.3     1  UNL1        0.5087
     13 F          68.7366   91.5421   13.0063 F       1  UNL1       -0.1550
     14 F          68.0866   91.5347   15.5218 F       1  UNL1       -0.1550
     15 C          60.1169   89.6232    9.2830 C.3     1  UNL1        0.1375
     16 O          59.0518   87.4872    8.2568 O.co2   1  UNL1       -0.5477
     17 C          59.6522   88.8509    8.0840 C.2     1  UNL1        0.0683
     18 O          59.7878   89.4424    6.7122 O.co2   1  UNL1       -0.5477
     19 C          60.6096   87.5235   10.7317 C.3     1  UNL1        0.1225
     20 C          61.5580   86.4216   10.3625 C.ar    1  UNL1       -0.0045
     21 C          62.2321   86.4298    9.0225 C.ar    1  UNL1       -0.0029
     22 C          63.1805   85.3279    8.6532 C.ar    1  UNL1       -0.0003
     23 C          63.4547   84.2177    9.6240 C.ar    1  UNL1        0.0001
     24 C          62.7806   84.2094   10.9639 C.ar    1  UNL1        0.0026
     25 C          61.8322   85.3114   11.3331 C.ar    1  UNL1       -0.0028
     26 C          63.0548   83.0992   11.9347 C.ar    1  UNL1        0.0343
     27 C          62.5552   81.7138   11.6503 C.ar    1  UNL1        0.0030
     28 C          62.8294   80.6037   12.6210 C.ar    1  UNL1        0.0002
     29 C          63.6032   80.8790   13.8762 C.ar    1  UNL1        0.0031
     30 C          64.1028   82.2644   14.1606 C.ar    1  UNL1        0.0372
     31 C          63.8286   83.3745   13.1898 C.ar    1  UNL1        0.1467
     32 O          64.3282   84.7601   13.4742 O.3     1  UNL1       -0.4045
     33 C          64.1596   85.3520   14.8422 C.3     1  UNL1        0.5753
     34 F          63.9911   85.9440   16.2101 F       1  UNL1       -0.1328
     35 F          65.6067   85.7468   14.8496 F       1  UNL1       -0.1328
     36 F          62.7125   84.9572   14.8347 F       1  UNL1       -0.1328
@<TRIPOS>UNITY_ATOM_ATTR
16 1
charge -1
@<TRIPOS>BOND
     1    16    17   ar
     2    17    18   ar
     3    17    15    1
     4    15     1    1
     5     1    19    1
     6    19    20    1
     7    20    21   ar
     8    21    22   ar
     9    22    23   ar
    10    23    24   ar
    11    24    26    1
    12    26    27   ar
    13    27    28   ar
    14    28    29   ar
    15    29    30   ar
    16    30    31   ar
    17    31    32    1
    18    32    33    1
    19    33    34    1
    20    33    35    1
    21    33    36    1
    22    24    25   ar
    23     1     2    1
    24     2     3    2
    25     2     4    2
    26     2     5    1
    27     5     6   ar
    28     6     7   ar
    29     7     8   ar
    30     8    11    1
    31    11    12    1
    32    12    13    1
    33    12    14    1
    34     8     9   ar
    35     9    10   ar
    36    25    20   ar
    37    10     5   ar
    38    31    26   ar
@<TRIPOS>MOLECULE
*****
 36 38 0 0 0
SMALL
GASTEIGER

@<TRIPOS>ATOM
      1 N          63.6260   84.2452   14.5066 N.3     1  UNL1       -0.1454
      2 S          63.2457   84.5235   13.0825 S.O2    1  UNL1        0.0639
      3 O          61.9176   85.0497   13.5400 O.2     1  UNL1       -0.1528
      4 O          64.5738   83.9974   12.6250 O.2     1  UNL1       -0.1528
      5 C          62.8654   84.8018   11.6585 C.ar    1  UNL1        0.1224
      6 C          61.8013   85.8131   11.3503 C.ar    1  UNL1        0.0230
      7 C          61.4209   86.0914    9.9262 C.ar    1  UNL1        0.0385
      8 C          62.1047   85.3584    8.8104 C.ar    1  UNL1        0.1444
      9 C          63.1689   84.3471    9.1185 C.ar    1  UNL1        0.0385
     10 C          63.5492   84.0688   10.5426 C.ar    1  UNL1        0.0230
     11 O          61.7244   85.6367    7.3863 O.3     1  UNL1       -0.4236
     12 C          61.9605   84.5979    6.3303 C.3     1  UNL1        0.5087
     13 F          63.3046   84.4883    5.6733 F       1  UNL1       -0.1550
     14 F          60.8526   83.6689    5.9312 F       1  UNL1       -0.1550
     15 C          63.0853   83.0321   15.2039 C.3     1  UNL1        0.1375
     16 O          61.2423   81.5860   14.0805 O.co2   1  UNL1       -0.5477
     17 C          62.6865   81.8249   14.4079 C.2     1  UNL1        0.0683
     18 O          63.7319   80.8566   13.9394 O.co2   1  UNL1       -0.5477
     19 C          64.5469   85.1799   15.2333 C.3     1  UNL1        0.1225
     20 C          64.1295   86.5983   15.4860 C.ar    1  UNL1       -0.0045
     21 C          63.4419   86.9605   16.7691 C.ar    1  UNL1       -0.0029
     22 C          63.0244   88.3789   17.0218 C.ar    1  UNL1       -0.0003
     23 C          63.2946   89.4351   15.9915 C.ar    1  UNL1        0.0001
     24 C          63.9821   89.0729   14.7085 C.ar    1  UNL1        0.0026
     25 C          64.3996   87.6545   14.4558 C.ar    1  UNL1       -0.0028
     26 C          64.2523   90.1291   13.6782 C.ar    1  UNL1        0.0343
     27 C          63.4675   90.1482   12.4001 C.ar    1  UNL1        0.0030
     28 C          63.7376   91.2044   11.3699 C.ar    1  UNL1        0.0002
     29 C          64.7926   92.2415   11.6178 C.ar    1  UNL1        0.0031
     30 C          65.5774   92.2224   12.8959 C.ar    1  UNL1        0.0372
     31 C          65.3072   91.1662   13.9261 C.ar    1  UNL1        0.1467
     32 O          66.0921   91.1471   15.2043 O.3     1  UNL1       -0.4045
     33 C          66.9708   92.3088   15.5623 C.3     1  UNL1        0.5753
     34 F          67.8496   93.4706   15.9202 F       1  UNL1       -0.1328
     35 F          65.8921   92.8505   16.4528 F       1  UNL1       -0.1328
     36 F          68.0496   91.7672   14.6718 F       1  UNL1       -0.1328
@<TRIPOS>UNITY_ATOM_ATTR
16 1
charge -1
@<TRIPOS>BOND
     1    16    17   ar
     2    17    18   ar
     3    17    15    1
     4    15     1    1
     5     1    19    1
     6    19    20    1
     7    20    21   ar
     8    21    22   ar
     9    22    23   ar
    10    23    24   ar
    11    24    26    1
    12    26    27   ar
    13    27    28   ar
    14    28    29   ar
    15    29    30   ar
    16    30    31   ar
    17    31    32    1
    18    32    33    1
    19    33    34    1
    20    33    35    1
    21    33    36    1
    22    24    25   ar
    23     1     2    1
    24     2     3    2
    25     2     4    2
    26     2     5    1
    27     5     6   ar
    28     6     7   ar
    29     7     8   ar
    30     8    11    1
    31    11    12    1
    32    12    13    1
    33    12    14    1
    34     8     9   ar
    35     9    10   ar
    36    25    20   ar
    37    10     5   ar
    38    31    26   ar
@<TRIPOS>MOLECULE
*****
 36 38 0 0 0
SMALL
GASTEIGER

@<TRIPOS>ATOM
      1 N          61.1480   88.3680   10.6143 N.3     1  UNL1       -0.1454
      2 S          62.1979   89.2769   11.1813 S.O2    1  UNL1        0.0639
      3 O          61.9791   90.2361   10.0490 O.2     1  UNL1       -0.1528
      4 O          62.4168   88.3176   12.3135 O.2     1  UNL1       -0.1528
      5 C          63.2479   90.1857   11.7483 C.ar    1  UNL1        0.1224
      6 C          63.7463   89.9750   13.1472 C.ar    1  UNL1        0.0230
      7 C          64.7963   90.8839   13.7142 C.ar    1  UNL1        0.0385
      8 C          65.3478   92.0035   12.8823 C.ar    1  UNL1        0.1444
      9 C          64.8494   92.2143   11.4833 C.ar    1  UNL1        0.0385
     10 C          63.7995   91.3054   10.9162 C.ar    1  UNL1        0.0230
     11 O          66.3978   92.9124   13.4493 O.3     1  UNL1       -0.4236
     12 C          67.0943   92.5484   14.7270 C.3     1  UNL1        0.5087
     13 F          67.1354   93.5263   15.8637 F       1  UNL1       -0.1550
     14 F          67.7498   91.2066   14.8680 F       1  UNL1       -0.1550
     15 C          59.7893   88.3052   11.2468 C.3     1  UNL1        0.1375
     16 O          59.0850   90.7795   11.6095 O.co2   1  UNL1       -0.5477
     17 C          59.3348   89.4061   12.1586 C.2     1  UNL1        0.0683
     18 O          59.1302   89.1337   13.6193 O.co2   1  UNL1       -0.5477
     19 C          61.4566   87.5219    9.4147 C.3     1  UNL1        0.1225
     20 C          62.1895   86.2238    9.5811 C.ar    1  UNL1       -0.0045
     21 C          63.0996   85.7318    8.4948 C.ar    1  UNL1       -0.0029
     22 C          63.8324   84.4336    8.6612 C.ar    1  UNL1       -0.0003
     23 C          63.6552   83.6274    9.9137 C.ar    1  UNL1        0.0001
     24 C          62.7451   84.1194   10.9998 C.ar    1  UNL1        0.0026
     25 C          62.0123   85.4176   10.8335 C.ar    1  UNL1       -0.0028
     26 C          62.5679   83.3132   12.2523 C.ar    1  UNL1        0.0343
     27 C          62.1423   81.8775   12.1662 C.ar    1  UNL1        0.0030
     28 C          61.9651   81.0714   13.4187 C.ar    1  UNL1        0.0002
     29 C          62.2135   81.7010   14.7573 C.ar    1  UNL1        0.0031
     30 C          62.6391   83.1368   14.8434 C.ar    1  UNL1        0.0372
     31 C          62.8163   83.9429   13.5909 C.ar    1  UNL1        0.1467
     32 O          63.2419   85.3787   13.6770 O.3     1  UNL1       -0.4045
     33 C          64.5498   85.7360   14.3186 C.3     1  UNL1        0.5753
     34 F          65.8578   86.0934   14.9601 F       1  UNL1       -0.1328
     35 F          63.9447   87.0029   14.8467 F       1  UNL1       -0.1328
     36 F          65.1550   84.4692   13.7905 F       1  UNL1       -0.1328
@<TRIPOS>UNITY_ATOM_ATTR
16 1
charge -1
@<TRIPOS>BOND
     1    16    17   ar
     2    17    18   ar
     3    17    15    1
     4    15     1    1
     5     1    19    1
     6    19    20    1
     7    20    21   ar
     8    21    22   ar
     9    22    23   ar
    10    23    24   ar
    11    24    26    1
    12    26    27   ar
    13    27    28   ar
    14    28    29   ar
    15    29    30   ar
    16    30    31   ar
    17    31    32    1
    18    32    33    1
    19    33    34    1
    20    33    35    1
    21    33    36    1
    22    24    25   ar
    23     1     2    1
    24     2     3    2
    25     2     4    2
    26     2     5    1
    27     5     6   ar
    28     6     7   ar
    29     7     8   ar
    30     8    11    1
    31    11    12    1
    32    12    13    1
    33    12    14    1
    34     8     9   ar
    35     9    10   ar
    36    25    20   ar
    37    10     5   ar
    38    31    26   ar
@<TRIPOS>MOLECULE
*****
 36 38 0 0 0
SMALL
GASTEIGER

@<TRIPOS>ATOM
      1 N          62.0182   90.2865   11.7042 N.3     1  UNL1       -0.1454
      2 S          63.3206   90.8186   12.2246 S.O2    1  UNL1        0.0639
      3 O          62.9964   90.2802   13.5866 O.2     1  UNL1       -0.1528
      4 O          63.6448   91.3570   10.8626 O.2     1  UNL1       -0.1528
      5 C          64.6229   91.3507   12.7449 C.ar    1  UNL1        0.1224
      6 C          65.1605   90.8648   14.0583 C.ar    1  UNL1        0.0230
      7 C          66.4629   91.3969   14.5786 C.ar    1  UNL1        0.0385
      8 C          67.2276   92.4148   13.7856 C.ar    1  UNL1        0.1444
      9 C          66.6901   92.9007   12.4722 C.ar    1  UNL1        0.0385
     10 C          65.3877   92.3687   11.9519 C.ar    1  UNL1        0.0230
     11 O          68.5300   92.9469   14.3060 O.3     1  UNL1       -0.4236
     12 C          68.6838   93.2575   15.7655 C.3     1  UNL1        0.5087
     13 F          68.7022   92.1448   16.7712 F       1  UNL1       -0.1550
     14 F          68.8191   94.6808   16.2191 F       1  UNL1       -0.1550
     15 C          60.8643   90.0810   12.6404 C.3     1  UNL1        0.1375
     16 O          58.8330   91.1830   11.4534 O.co2   1  UNL1       -0.5477
     17 C          59.4679   89.9880   12.1006 C.2     1  UNL1        0.0683
     18 O          58.7065   88.7001   12.2081 O.co2   1  UNL1       -0.5477
     19 C          61.8697   89.9600   10.2478 C.3     1  UNL1        0.1225
     20 C          61.5697   88.5536    9.8212 C.ar    1  UNL1       -0.0045
     21 C          60.4539   88.2847    8.8553 C.ar    1  UNL1       -0.0029
     22 C          60.1539   86.8782    8.4288 C.ar    1  UNL1       -0.0003
     23 C          60.9696   85.7407    8.9681 C.ar    1  UNL1        0.0001
     24 C          62.0853   86.0097    9.9340 C.ar    1  UNL1        0.0026
     25 C          62.3853   87.4161   10.3605 C.ar    1  UNL1       -0.0028
     26 C          62.9010   84.8722   10.4734 C.ar    1  UNL1        0.0343
     27 C          63.4127   83.8103    9.5458 C.ar    1  UNL1        0.0030
     28 C          64.2283   82.6729   10.0852 C.ar    1  UNL1        0.0002
     29 C          64.5323   82.5974   11.5521 C.ar    1  UNL1        0.0031
     30 C          64.0206   83.6593   12.4797 C.ar    1  UNL1        0.0372
     31 C          63.2049   84.7967   11.9403 C.ar    1  UNL1        0.1467
     32 O          62.6932   85.8588   12.8679 O.3     1  UNL1       -0.4045
     33 C          63.5881   86.4185   13.9336 C.3     1  UNL1        0.5753
     34 F          64.4830   86.9782   14.9993 F       1  UNL1       -0.1328
     35 F          63.9522   87.5584   13.0291 F       1  UNL1       -0.1328
     36 F          63.2240   85.2786   14.8381 F       1  UNL1       -0.1328
@<TRIPOS>UNITY_ATOM_ATTR
16 1
charge -1
@<TRIPOS>BOND
     1    16    17   ar
     2    17    18   ar
     3    17    15    1
     4    15     1    1
     5     1    19    1
     6    19    20    1
     7    20    21   ar
     8    21    22   ar
     9    22    23   ar
    10    23    24   ar
    11    24    26    1
    12    26    27   ar
    13    27    28   ar
    14    28    29   ar
    15    29    30   ar
    16    30    31   ar
    17    31    32    1
    18    32    33    1
    19    33    34    1
    20    33    35    1
    21    33    36    1
    22    24    25   ar
    23     1     2    1
    24     2     3    2
    25     2     4    2
    26     2     5    1
    27     5     6   ar
    28     6     7   ar
    29     7     8   ar
    30     8    11    1
    31    11    12    1
    32    12    13    1
    33    12    14    1
    34     8     9   ar
    35     9    10   ar
    36    25    20   ar
    37    10     5   ar
    38    31    26   ar
@<TRIPOS>MOLECULE
*****
 36 38 0 0 0
SMALL
GASTEIGER

@<TRIPOS>ATOM
      1 N          61.1121   88.6450   10.3198 N.3     1  UNL1       -0.1454
      2 S          62.1616   89.5877   10.8295 S.O2    1  UNL1        0.0639
      3 O          62.3345   88.7347   12.0512 O.2     1  UNL1       -0.1528
      4 O          61.9887   90.4407    9.6078 O.2     1  UNL1       -0.1528
      5 C          63.2111   90.5304   11.3391 C.ar    1  UNL1        0.1224
      6 C          63.6515   90.4592   12.7712 C.ar    1  UNL1        0.0230
      7 C          64.7011   91.4019   13.2809 C.ar    1  UNL1        0.0385
      8 C          65.3102   92.4159   12.3585 C.ar    1  UNL1        0.1444
      9 C          64.8697   92.4871   10.9263 C.ar    1  UNL1        0.0385
     10 C          63.8202   91.5444   10.4167 C.ar    1  UNL1        0.0230
     11 O          66.3597   93.3586   12.8682 O.3     1  UNL1       -0.4236
     12 C          67.2073   92.9726   14.0441 C.3     1  UNL1        0.5087
     13 F          67.2707   93.8650   15.2480 F       1  UNL1       -0.1550
     14 F          67.9914   91.6942   14.0160 F       1  UNL1       -0.1550
     15 C          59.7022   88.7500   10.8213 C.3     1  UNL1        0.1375
     16 O          59.4197   89.4031   13.3200 O.co2   1  UNL1       -0.5477
     17 C          59.3518   89.7673   11.8665 C.2     1  UNL1        0.0683
     18 O          58.9336   91.1486   11.4581 O.co2   1  UNL1       -0.5477
     19 C          61.4723   87.5973    9.3086 C.3     1  UNL1        0.1225
     20 C          62.1908   86.3535    9.7408 C.ar    1  UNL1       -0.0045
     21 C          62.7303   85.4035    8.7129 C.ar    1  UNL1       -0.0029
     22 C          63.4488   84.1597    9.1451 C.ar    1  UNL1       -0.0003
     23 C          63.6278   83.8659   10.6051 C.ar    1  UNL1        0.0001
     24 C          63.0883   84.8159   11.6330 C.ar    1  UNL1        0.0026
     25 C          62.3698   86.0597   11.2008 C.ar    1  UNL1       -0.0028
     26 C          63.2673   84.5221   13.0930 C.ar    1  UNL1        0.0343
     27 C          63.9779   85.5060   13.9744 C.ar    1  UNL1        0.0030
     28 C          64.1569   85.2122   15.4344 C.ar    1  UNL1        0.0002
     29 C          63.6252   83.9345   16.0130 C.ar    1  UNL1        0.0031
     30 C          62.9146   82.9506   15.1316 C.ar    1  UNL1        0.0372
     31 C          62.7356   83.2444   13.6716 C.ar    1  UNL1        0.1467
     32 O          62.0249   82.2605   12.7902 O.3     1  UNL1       -0.4045
     33 C          62.1246   80.7909   13.0739 C.3     1  UNL1        0.5753
     34 F          62.2242   79.3214   13.3576 F       1  UNL1       -0.1328
     35 F          60.8172   80.8439   13.8073 F       1  UNL1       -0.1328
     36 F          63.4320   80.7380   12.3405 F       1  UNL1       -0.1328
@<TRIPOS>UNITY_ATOM_ATTR
16 1
charge -1
@<TRIPOS>BOND
     1    16    17   ar
     2    17    18   ar
     3    17    15    1
     4    15     1    1
     5     1    19    1
     6    19    20    1
     7    20    21   ar
     8    21    22   ar
     9    22    23   ar
    10    23    24   ar
    11    24    26    1
    12    26    27   ar
    13    27    28   ar
    14    28    29   ar
    15    29    30   ar
    16    30    31   ar
    17    31    32    1
    18    32    33    1
    19    33    34    1
    20    33    35    1
    21    33    36    1
    22    24    25   ar
    23     1     2    1
    24     2     3    2
    25     2     4    2
    26     2     5    1
    27     5     6   ar
    28     6     7   ar
    29     7     8   ar
    30     8    11    1
    31    11    12    1
    32    12    13    1
    33    12    14    1
    34     8     9   ar
    35     9    10   ar
    36    25    20   ar
    37    10     5   ar
    38    31    26   ar
@<TRIPOS>MOLECULE
*****
 36 38 0 0 0
SMALL
GASTEIGER

@<TRIPOS>ATOM
      1 N          61.1977   87.8845    9.6681 N.3     1  UNL1       -0.1454
      2 S          62.0306   88.6993   10.6127 S.O2    1  UNL1        0.0639
      3 O          62.9760   89.0281    9.4956 O.2     1  UNL1       -0.1528
      4 O          61.0852   88.3705   11.7299 O.2     1  UNL1       -0.1528
      5 C          62.8634   89.5142   11.5574 C.ar    1  UNL1        0.1224
      6 C          63.2743   88.9405   12.8810 C.ar    1  UNL1        0.0230
      7 C          64.1072   89.7554   13.8256 C.ar    1  UNL1        0.0385
      8 C          64.5292   91.1440   13.4466 C.ar    1  UNL1        0.1444
      9 C          64.1183   91.7178   12.1229 C.ar    1  UNL1        0.0385
     10 C          63.2854   90.9029   11.1783 C.ar    1  UNL1        0.0230
     11 O          65.3620   91.9588   14.3912 O.3     1  UNL1       -0.4236
     12 C          66.8545   91.8078   14.3966 C.3     1  UNL1        0.5087
     13 F          67.6066   91.7450   13.1003 F       1  UNL1       -0.1550
     14 F          67.5947   91.7197   15.6982 F       1  UNL1       -0.1550
     15 C          59.7622   88.2482    9.4290 C.3     1  UNL1        0.1375
     16 O          58.3880   86.7510    7.8104 O.co2   1  UNL1       -0.5477
     17 C          59.1444   88.0176    8.0818 C.2     1  UNL1        0.0683
     18 O          59.2831   89.0535    7.0059 O.co2   1  UNL1       -0.5477
     19 C          61.8003   86.7059    8.9626 C.3     1  UNL1        0.1225
     20 C          62.5218   85.6505    9.7472 C.ar    1  UNL1       -0.0045
     21 C          63.2066   84.5225    9.0340 C.ar    1  UNL1       -0.0029
     22 C          63.9281   83.4671    9.8187 C.ar    1  UNL1       -0.0003
     23 C          63.9647   83.5398   11.3165 C.ar    1  UNL1        0.0001
     24 C          63.2799   84.6678   12.0296 C.ar    1  UNL1        0.0026
     25 C          62.5584   85.7231   11.2450 C.ar    1  UNL1       -0.0028
     26 C          63.3165   84.7404   13.5275 C.ar    1  UNL1        0.0343
     27 C          64.0462   85.8615   14.2063 C.ar    1  UNL1        0.0030
     28 C          64.0828   85.9341   15.7041 C.ar    1  UNL1        0.0002
     29 C          63.3897   84.8857   16.5230 C.ar    1  UNL1        0.0031
     30 C          62.6601   83.7647   15.8441 C.ar    1  UNL1        0.0372
     31 C          62.6235   83.6921   14.3464 C.ar    1  UNL1        0.1467
     32 O          61.8938   82.5710   13.6674 O.3     1  UNL1       -0.4045
     33 C          62.2924   81.1490   13.9300 C.3     1  UNL1        0.5753
     34 F          62.6910   79.7270   14.1927 F       1  UNL1       -0.1328
     35 F          63.7269   81.5034   13.6718 F       1  UNL1       -0.1328
     36 F          60.8579   80.7946   14.1883 F       1  UNL1       -0.1328
@<TRIPOS>UNITY_ATOM_ATTR
16 1
charge -1
@<TRIPOS>BOND
     1    16    17   ar
     2    17    18   ar
     3    17    15    1
     4    15     1    1
     5     1    19    1
     6    19    20    1
     7    20    21   ar
     8    21    22   ar
     9    22    23   ar
    10    23    24   ar
    11    24    26    1
    12    26    27   ar
    13    27    28   ar
    14    28    29   ar
    15    29    30   ar
    16    30    31   ar
    17    31    32    1
    18    32    33    1
    19    33    34    1
    20    33    35    1
    21    33    36    1
    22    24    25   ar
    23     1     2    1
    24     2     3    2
    25     2     4    2
    26     2     5    1
    27     5     6   ar
    28     6     7   ar
    29     7     8   ar
    30     8    11    1
    31    11    12    1
    32    12    13    1
    33    12    14    1
    34     8     9   ar
    35     9    10   ar
    36    25    20   ar
    37    10     5   ar
    38    31    26   ar
@<TRIPOS>MOLECULE
*****
 36 38 0 0 0
SMALL
GASTEIGER

@<TRIPOS>ATOM
      1 N          62.2818   89.5595   11.2061 N.3     1  UNL1       -0.1454
      2 S          63.2660   90.3515   12.0149 S.O2    1  UNL1        0.0639
      3 O          62.8533   89.6044   13.2484 O.2     1  UNL1       -0.1528
      4 O          63.6786   91.0985   10.7813 O.2     1  UNL1       -0.1528
      5 C          64.2501   91.1434   12.8237 C.ar    1  UNL1        0.1224
      6 C          65.0573   92.2267   12.1719 C.ar    1  UNL1        0.0230
      7 C          66.0415   93.0186   12.9807 C.ar    1  UNL1        0.0385
      8 C          66.2185   92.7273   14.4414 C.ar    1  UNL1        0.1444
      9 C          65.4113   91.6440   15.0934 C.ar    1  UNL1        0.0385
     10 C          64.4272   90.8520   14.2845 C.ar    1  UNL1        0.0230
     11 O          67.2027   93.5192   15.2503 O.3     1  UNL1       -0.4236
     12 C          68.6407   93.0960   15.3058 C.3     1  UNL1        0.5087
     13 F          69.1958   92.1855   14.2509 F       1  UNL1       -0.1550
     14 F          69.5235   93.5831   16.4163 F       1  UNL1       -0.1550
     15 C          61.8172   90.0747    9.8761 C.3     1  UNL1        0.1375
     16 O          59.3513   90.7111   10.3903 O.co2   1  UNL1       -0.5477
     17 C          60.3611   90.0243    9.5193 C.2     1  UNL1        0.0683
     18 O          59.9148   89.2872    8.2916 O.co2   1  UNL1       -0.5477
     19 C          61.7623   88.2524   11.7271 C.3     1  UNL1        0.1225
     20 C          62.1805   86.9666   11.0777 C.ar    1  UNL1       -0.0045
     21 C          62.4616   86.9271    9.6047 C.ar    1  UNL1       -0.0029
     22 C          62.8798   85.6412    8.9553 C.ar    1  UNL1       -0.0003
     23 C          63.0169   84.3950    9.7788 C.ar    1  UNL1        0.0001
     24 C          62.7358   84.4346   11.2517 C.ar    1  UNL1        0.0026
     25 C          62.3176   85.7204   11.9011 C.ar    1  UNL1       -0.0028
     26 C          62.8728   83.1883   12.0752 C.ar    1  UNL1        0.0343
     27 C          62.7690   81.8422   11.4216 C.ar    1  UNL1        0.0030
     28 C          62.9061   80.5961   12.2451 C.ar    1  UNL1        0.0002
     29 C          63.1470   80.6959   13.7222 C.ar    1  UNL1        0.0031
     30 C          63.2509   82.0420   14.3759 C.ar    1  UNL1        0.0372
     31 C          63.1138   83.2882   13.5523 C.ar    1  UNL1        0.1467
     32 O          63.2176   84.6343   14.2060 O.3     1  UNL1       -0.4045
     33 C          64.5632   85.1927   14.5633 C.3     1  UNL1        0.5753
     34 F          65.9087   85.7511   14.9207 F       1  UNL1       -0.1328
     35 F          65.2205   84.1739   13.6802 F       1  UNL1       -0.1328
     36 F          63.9058   86.2116   15.4464 F       1  UNL1       -0.1328
@<TRIPOS>UNITY_ATOM_ATTR
16 1
charge -1
@<TRIPOS>BOND
     1    16    17   ar
     2    17    18   ar
     3    17    15    1
     4    15     1    1
     5     1    19    1
     6    19    20    1
     7    20    21   ar
     8    21    22   ar
     9    22    23   ar
    10    23    24   ar
    11    24    26    1
    12    26    27   ar
    13    27    28   ar
    14    28    29   ar
    15    29    30   ar
    16    30    31   ar
    17    31    32    1
    18    32    33    1
    19    33    34    1
    20    33    35    1
    21    33    36    1
    22    24    25   ar
    23     1     2    1
    24     2     3    2
    25     2     4    2
    26     2     5    1
    27     5     6   ar
    28     6     7   ar
    29     7     8   ar
    30     8    11    1
    31    11    12    1
    32    12    13    1
    33    12    14    1
    34     8     9   ar
    35     9    10   ar
    36    25    20   ar
    37    10     5   ar
    38    31    26   ar
@<TRIPOS>MOLECULE
*****
 36 38 0 0 0
SMALL
GASTEIGER

@<TRIPOS>ATOM
      1 N          64.0468   89.5120   13.6727 N.3     1  UNL1       -0.1454
      2 S          63.7386   88.0860   13.3241 S.O2    1  UNL1        0.0639
      3 O          62.9348   88.5480   12.1449 O.2     1  UNL1       -0.1528
      4 O          64.5425   87.6241   14.5033 O.2     1  UNL1       -0.1528
      5 C          63.4305   86.6600   12.9755 C.ar    1  UNL1        0.1224
      6 C          63.9787   85.5467   13.8180 C.ar    1  UNL1        0.0230
      7 C          63.6705   84.1206   13.4695 C.ar    1  UNL1        0.0385
      8 C          62.8141   83.8080   12.2783 C.ar    1  UNL1        0.1444
      9 C          62.2659   84.9213   11.4357 C.ar    1  UNL1        0.0385
     10 C          62.5740   86.3474   11.7843 C.ar    1  UNL1        0.0230
     11 O          62.5059   82.3820   11.9297 O.3     1  UNL1       -0.4236
     12 C          62.0880   81.4210   13.0031 C.3     1  UNL1        0.5087
     13 F          61.4867   81.9352   14.2775 F       1  UNL1       -0.1550
     14 F          62.2714   79.9459   12.8020 F       1  UNL1       -0.1550
     15 C          64.3473   89.8888   15.0932 C.3     1  UNL1        0.1375
     16 O          63.3158   91.6735   16.6746 O.co2   1  UNL1       -0.5477
     17 C          63.2398   90.3355   16.0010 C.2     1  UNL1        0.0683
     18 O          62.0564   89.4441   16.2351 O.co2   1  UNL1       -0.5477
     19 C          64.0545   90.5613   12.6008 C.3     1  UNL1        0.1225
     20 C          64.9365   91.7668   12.7377 C.ar    1  UNL1       -0.0045
     21 C          65.6455   92.0343   14.0323 C.ar    1  UNL1       -0.0029
     22 C          66.5275   93.2398   14.1692 C.ar    1  UNL1       -0.0003
     23 C          66.7005   94.1779   13.0115 C.ar    1  UNL1        0.0001
     24 C          65.9915   93.9104   11.7171 C.ar    1  UNL1        0.0026
     25 C          65.1095   92.7049   11.5801 C.ar    1  UNL1       -0.0028
     26 C          66.1645   94.8485   10.5594 C.ar    1  UNL1        0.0343
     27 C          65.1103   95.8726   10.2599 C.ar    1  UNL1        0.0030
     28 C          65.2833   96.8106    9.1022 C.ar    1  UNL1        0.0002
     29 C          66.5106   96.7246    8.2441 C.ar    1  UNL1        0.0031
     30 C          67.5649   95.7005    8.5437 C.ar    1  UNL1        0.0372
     31 C          67.3918   94.7625    9.7013 C.ar    1  UNL1        0.1467
     32 O          68.4461   93.7384   10.0009 O.3     1  UNL1       -0.4045
     33 C          68.2980   92.3370    9.4869 C.3     1  UNL1        0.5753
     34 F          68.1498   90.9356    8.9728 F       1  UNL1       -0.1328
     35 F          68.2534   91.8249   10.8960 F       1  UNL1       -0.1328
     36 F          68.3425   92.8492    8.0777 F       1  UNL1       -0.1328
@<TRIPOS>UNITY_ATOM_ATTR
16 1
charge -1
@<TRIPOS>BOND
     1    16    17   ar
     2    17    18   ar
     3    17    15    1
     4    15     1    1
     5     1    19    1
     6    19    20    1
     7    20    21   ar
     8    21    22   ar
     9    22    23   ar
    10    23    24   ar
    11    24    26    1
    12    26    27   ar
    13    27    28   ar
    14    28    29   ar
    15    29    30   ar
    16    30    31   ar
    17    31    32    1
    18    32    33    1
    19    33    34    1
    20    33    35    1
    21    33    36    1
    22    24    25   ar
    23     1     2    1
    24     2     3    2
    25     2     4    2
    26     2     5    1
    27     5     6   ar
    28     6     7   ar
    29     7     8   ar
    30     8    11    1
    31    11    12    1
    32    12    13    1
    33    12    14    1
    34     8     9   ar
    35     9    10   ar
    36    25    20   ar
    37    10     5   ar
    38    31    26   ar
