@<TRIPOS>MOLECULE
*****
 30 34 0 0 0
SMALL
GASTEIGER

@<TRIPOS>ATOM
      1 C          65.1841   92.1866   12.7168 C.ar    1  UNL1        0.1783
      2 N          65.1706   92.6749   11.2985 N.ar    1  UNL1       -0.1291
      3 N          64.2311   91.8046   10.5177 N.ar    1  UNL1       -0.1126
      4 C          63.6640   90.7784   11.4533 C.ar    1  UNL1        0.2255
      5 N          64.2530   91.0146   12.8124 N.ar    1  UNL1       -0.2620
      6 N          62.6806   89.7046   11.0930 N.pl3   1  UNL1       -0.2777
      7 C          61.2849   89.9208   10.5877 C.3     1  UNL1        0.0939
      8 C          60.6618   88.5759   10.3572 C.3     1  UNL1        0.0256
      9 C          60.3155   87.1223   10.2266 C.3     1  UNL1        0.0079
     10 C          61.6725   87.5285   10.7200 C.3     1  UNL1        0.0397
     11 C          62.9201   88.2261   11.1747 C.3     1  UNL1        0.0976
     12 C          62.1958   86.1350   10.9048 C.ar    1  UNL1       -0.0104
     13 C          62.1746   85.5001   12.2637 C.ar    1  UNL1       -0.0011
     14 C          62.6979   84.1065   12.4486 C.ar    1  UNL1        0.0294
     15 C          63.2423   83.3478   11.2746 C.ar    1  UNL1        0.1410
     16 F          63.7656   81.9543   11.4595 F       1  UNL1       -0.2041
     17 C          63.2634   83.9828    9.9157 C.ar    1  UNL1        0.0407
     18 C          62.7402   85.3764    9.7309 C.ar    1  UNL1        0.0560
     19 CL         62.7613   86.0113    8.3720 Cl      1  UNL1       -0.0825
     20 C          63.9619   90.2184   14.0499 C.ar    1  UNL1        0.0871
     21 C          64.1970   88.7370   14.0613 C.ar    1  UNL1        0.0240
     22 C          63.9059   87.9408   15.2988 C.ar    1  UNL1        0.0592
     23 C          63.3797   88.6261   16.5250 C.ar    1  UNL1        0.2251
     24 N          63.1446   90.1075   16.5136 N.ar    1  UNL1       -0.2086
     25 C          63.4357   90.9037   15.2761 C.ar    1  UNL1        0.1196
     26 O          63.0886   87.8300   17.7625 O.3     1  UNL1       -0.4561
     27 C          62.6130   86.4120   17.6474 C.3     1  UNL1        0.2542
     28 C          65.9877   92.7684   13.8419 C.3     1  UNL1        0.2079
     29 C          68.3507   92.5355   14.8963 C.3     1  UNL1        0.1747
     30 O          67.4794   92.8722   13.7227 O.3     1  UNL1       -0.3430
@<TRIPOS>BOND
     1    29    30    1
     2    30    28    1
     3    28     1    1
     4     1     2   ar
     5     2     3   ar
     6     3     4   ar
     7     4     6    1
     8     6     7    1
     9     8     7    1
    10     8     9    1
    11     9    10    1
    12    10    12    1
    13    12    13   ar
    14    13    14   ar
    15    14    15   ar
    16    15    16    1
    17    15    17   ar
    18    17    18   ar
    19    18    19    1
    20    10    11    1
    21     4     5   ar
    22     5    20    1
    23    20    21   ar
    24    21    22   ar
    25    22    23   ar
    26    23    26    1
    27    26    27    1
    28    23    24   ar
    29    24    25   ar
    30     5     1   ar
    31    25    20   ar
    32    11     6    1
    33    10     8    1
    34    18    12   ar
@<TRIPOS>MOLECULE
*****
 30 34 0 0 0
SMALL
GASTEIGER

@<TRIPOS>ATOM
      1 C          63.7914   83.2461   11.4513 C.ar    1  UNL1        0.1783
      2 N          63.6407   83.3201    9.9607 N.ar    1  UNL1       -0.1291
      3 N          63.0246   84.6450    9.6223 N.ar    1  UNL1       -0.1126
      4 C          62.7944   85.3900   10.9037 C.ar    1  UNL1        0.2255
      5 N          63.2684   84.5253   12.0341 N.ar    1  UNL1       -0.2620
      6 N          62.1955   86.7592   11.0323 N.pl3   1  UNL1       -0.2777
      7 C          60.7351   87.0934   10.9572 C.3     1  UNL1        0.0939
      8 C          60.5888   88.5754   11.1370 C.3     1  UNL1        0.0256
      9 C          60.7551   90.0520   11.3413 C.3     1  UNL1        0.0079
     10 C          61.9588   89.1572   11.3231 C.3     1  UNL1        0.0397
     11 C          62.9517   88.0347   11.2584 C.3     1  UNL1        0.0976
     12 C          62.9667   90.2456   11.5454 C.ar    1  UNL1       -0.0104
     13 C          63.3991   91.1126   10.4003 C.ar    1  UNL1       -0.0011
     14 C          64.4071   92.2011   10.6226 C.ar    1  UNL1        0.0294
     15 C          64.9826   92.4225   11.9901 C.ar    1  UNL1        0.1410
     16 F          65.9905   93.5109   12.2124 F       1  UNL1       -0.2041
     17 C          64.5501   91.5554   13.1352 C.ar    1  UNL1        0.0407
     18 C          63.5422   90.4670   12.9129 C.ar    1  UNL1        0.0560
     19 CL         63.1097   89.5999   14.0580 Cl      1  UNL1       -0.0825
     20 C          63.2266   84.8781   13.4914 C.ar    1  UNL1        0.0871
     21 C          64.2192   85.8504   14.0566 C.ar    1  UNL1        0.0240
     22 C          64.1774   86.2031   15.5139 C.ar    1  UNL1        0.0592
     23 C          63.1429   85.5836   16.4061 C.ar    1  UNL1        0.2251
     24 N          62.1503   84.6114   15.8410 N.ar    1  UNL1       -0.2086
     25 C          62.1921   84.2586   14.3836 C.ar    1  UNL1        0.1196
     26 O          63.1010   85.9364   17.8635 O.3     1  UNL1       -0.4561
     27 C          62.6547   87.3030   18.2917 C.3     1  UNL1        0.2542
     28 C          64.3646   82.0948   12.2235 C.3     1  UNL1        0.2079
     29 C          62.5594   80.3561   12.9075 C.3     1  UNL1        0.1747
     30 O          63.5456   81.4215   13.2846 O.3     1  UNL1       -0.3430
@<TRIPOS>BOND
     1    29    30    1
     2    30    28    1
     3    28     1    1
     4     1     2   ar
     5     2     3   ar
     6     3     4   ar
     7     4     6    1
     8     6     7    1
     9     8     7    1
    10     8     9    1
    11     9    10    1
    12    10    12    1
    13    12    13   ar
    14    13    14   ar
    15    14    15   ar
    16    15    16    1
    17    15    17   ar
    18    17    18   ar
    19    18    19    1
    20    10    11    1
    21     4     5   ar
    22     5    20    1
    23    20    21   ar
    24    21    22   ar
    25    22    23   ar
    26    23    26    1
    27    26    27    1
    28    23    24   ar
    29    24    25   ar
    30     5     1   ar
    31    25    20   ar
    32    11     6    1
    33    10     8    1
    34    18    12   ar
@<TRIPOS>MOLECULE
*****
 30 34 0 0 0
SMALL
GASTEIGER

@<TRIPOS>ATOM
      1 C          60.1119   87.9657    8.2402 C.ar    1  UNL1        0.1783
      2 N          59.7468   86.7032    7.5172 N.ar    1  UNL1       -0.1291
      3 N          60.5187   85.5754    8.1353 N.ar    1  UNL1       -0.1126
      4 C          61.3609   86.1409    9.2403 C.ar    1  UNL1        0.2255
      5 N          61.1094   87.6182    9.3050 N.ar    1  UNL1       -0.2620
      6 N          62.2912   85.3652   10.1251 N.pl3   1  UNL1       -0.2777
      7 C          63.2347   84.2865    9.6822 C.3     1  UNL1        0.0939
      8 C          63.9679   83.7866   10.8915 C.3     1  UNL1        0.0256
      9 C          64.5284   83.4998   12.2530 C.3     1  UNL1        0.0079
     10 C          63.4776   84.5564   12.0819 C.3     1  UNL1        0.0397
     11 C          62.4413   85.5320   11.6082 C.3     1  UNL1        0.0976
     12 C          63.4080   84.9442   13.5292 C.ar    1  UNL1       -0.0104
     13 C          64.1017   86.1851   14.0074 C.ar    1  UNL1       -0.0011
     14 C          64.0321   86.5729   15.4548 C.ar    1  UNL1        0.0294
     15 C          63.2688   85.7197   16.4240 C.ar    1  UNL1        0.1410
     16 F          63.1992   86.1074   17.8713 F       1  UNL1       -0.2041
     17 C          62.5750   84.4786   15.9457 C.ar    1  UNL1        0.0407
     18 C          62.6446   84.0909   14.4984 C.ar    1  UNL1        0.0560
     19 CL         61.9509   82.8499   14.0203 Cl      1  UNL1       -0.0825
     20 C          61.7442   88.5792   10.2661 C.ar    1  UNL1        0.0871
     21 C          62.7428   89.5839    9.7726 C.ar    1  UNL1        0.0240
     22 C          63.3775   90.5449   10.7337 C.ar    1  UNL1        0.0592
     23 C          63.0136   90.5012   12.1882 C.ar    1  UNL1        0.2251
     24 N          62.0150   89.4966   12.6817 N.ar    1  UNL1       -0.2086
     25 C          61.3803   88.5356   11.7206 C.ar    1  UNL1        0.1196
     26 O          63.6483   91.4622   13.1493 O.3     1  UNL1       -0.4561
     27 C          65.0214   92.0002   12.8750 C.3     1  UNL1        0.2542
     28 C          59.5739   89.3354    7.9492 C.3     1  UNL1        0.2079
     29 C          59.6023   90.4407    5.5982 C.3     1  UNL1        0.1747
     30 O          58.9033   89.6146    6.6368 O.3     1  UNL1       -0.3430
@<TRIPOS>BOND
     1    29    30    1
     2    30    28    1
     3    28     1    1
     4     1     2   ar
     5     2     3   ar
     6     3     4   ar
     7     4     6    1
     8     6     7    1
     9     8     7    1
    10     8     9    1
    11     9    10    1
    12    10    12    1
    13    12    13   ar
    14    13    14   ar
    15    14    15   ar
    16    15    16    1
    17    15    17   ar
    18    17    18   ar
    19    18    19    1
    20    10    11    1
    21     4     5   ar
    22     5    20    1
    23    20    21   ar
    24    21    22   ar
    25    22    23   ar
    26    23    26    1
    27    26    27    1
    28    23    24   ar
    29    24    25   ar
    30     5     1   ar
    31    25    20   ar
    32    11     6    1
    33    10     8    1
    34    18    12   ar
@<TRIPOS>MOLECULE
*****
 30 34 0 0 0
SMALL
GASTEIGER

@<TRIPOS>ATOM
      1 C          64.6475   91.6144   12.5956 C.ar    1  UNL1        0.1783
      2 N          65.5508   92.0846   13.6969 N.ar    1  UNL1       -0.1291
      3 N          65.3693   91.1665   14.8690 N.ar    1  UNL1       -0.1126
      4 C          64.3538   90.1289   14.4922 C.ar    1  UNL1        0.2255
      5 N          63.9077   90.4057   13.0871 N.ar    1  UNL1       -0.2620
      6 N          63.8694   89.0107   15.3669 N.pl3   1  UNL1       -0.2777
      7 C          63.2969   89.1546   16.7458 C.3     1  UNL1        0.0939
      8 C          62.9461   87.7852   17.2474 C.3     1  UNL1        0.0256
      9 C          62.7044   86.3217   17.4704 C.3     1  UNL1        0.0079
     10 C          63.3018   86.7949   16.1784 C.3     1  UNL1        0.0397
     11 C          63.8724   87.5523   15.0162 C.3     1  UNL1        0.0976
     12 C          63.4297   85.4354   15.5576 C.ar    1  UNL1       -0.0104
     13 C          62.2501   84.5092   15.5308 C.ar    1  UNL1       -0.0011
     14 C          62.3780   83.1496   14.9099 C.ar    1  UNL1        0.0294
     15 C          63.6855   82.7163   14.3159 C.ar    1  UNL1        0.1410
     16 F          63.8134   81.3569   13.6951 F       1  UNL1       -0.2041
     17 C          64.8651   83.6426   14.3428 C.ar    1  UNL1        0.0407
     18 C          64.7372   85.0021   14.9636 C.ar    1  UNL1        0.0560
     19 CL         65.9167   85.9283   14.9904 Cl      1  UNL1       -0.0825
     20 C          62.8989   89.6130   12.3099 C.ar    1  UNL1        0.0871
     21 C          63.1935   88.1924   11.9288 C.ar    1  UNL1        0.0240
     22 C          62.1847   87.3998   11.1517 C.ar    1  UNL1        0.0592
     23 C          60.8812   88.0276   10.7557 C.ar    1  UNL1        0.2251
     24 N          60.5866   89.4481   11.1369 N.ar    1  UNL1       -0.2086
     25 C          61.5955   90.2408   11.9140 C.ar    1  UNL1        0.1196
     26 O          59.8724   87.2349    9.9787 O.3     1  UNL1       -0.4561
     27 C          60.2743   86.5539    8.7040 C.3     1  UNL1        0.2542
     28 C          64.5085   92.2427   11.2405 C.3     1  UNL1        0.2079
     29 C          65.9010   94.3921   10.8039 C.3     1  UNL1        0.1747
     30 O          65.6852   92.9213   10.6041 O.3     1  UNL1       -0.3430
@<TRIPOS>BOND
     1    29    30    1
     2    30    28    1
     3    28     1    1
     4     1     2   ar
     5     2     3   ar
     6     3     4   ar
     7     4     6    1
     8     6     7    1
     9     8     7    1
    10     8     9    1
    11     9    10    1
    12    10    12    1
    13    12    13   ar
    14    13    14   ar
    15    14    15   ar
    16    15    16    1
    17    15    17   ar
    18    17    18   ar
    19    18    19    1
    20    10    11    1
    21     4     5   ar
    22     5    20    1
    23    20    21   ar
    24    21    22   ar
    25    22    23   ar
    26    23    26    1
    27    26    27    1
    28    23    24   ar
    29    24    25   ar
    30     5     1   ar
    31    25    20   ar
    32    11     6    1
    33    10     8    1
    34    18    12   ar
@<TRIPOS>MOLECULE
*****
 30 34 0 0 0
SMALL
GASTEIGER

@<TRIPOS>ATOM
      1 C          63.8023   84.2342   13.5045 C.ar    1  UNL1        0.1783
      2 N          64.5538   83.9908   14.7796 N.ar    1  UNL1       -0.1291
      3 N          64.7345   85.3100   15.4702 N.ar    1  UNL1       -0.1126
      4 C          64.0947   86.3688   14.6218 C.ar    1  UNL1        0.2255
      5 N          63.5186   85.7038   13.4070 N.ar    1  UNL1       -0.2620
      6 N          64.0405   87.8350   14.9336 N.pl3   1  UNL1       -0.2777
      7 C          63.4147   88.4558   16.1473 C.3     1  UNL1        0.0939
      8 C          63.5900   89.9423   16.0503 C.3     1  UNL1        0.0256
      9 C          63.9101   91.3611   15.6834 C.3     1  UNL1        0.0079
     10 C          64.3241   90.2403   14.7766 C.3     1  UNL1        0.0397
     11 C          64.6025   88.9379   14.0865 C.3     1  UNL1        0.0976
     12 C          64.9727   91.1089   13.7398 C.ar    1  UNL1       -0.0104
     13 C          64.2400   91.4394   12.4734 C.ar    1  UNL1       -0.0011
     14 C          64.8886   92.3081   11.4365 C.ar    1  UNL1        0.0294
     15 C          66.2698   92.8461   11.6662 C.ar    1  UNL1        0.1410
     16 F          66.9184   93.7147   10.6295 F       1  UNL1       -0.2041
     17 C          67.0025   92.5155   12.9328 C.ar    1  UNL1        0.0407
     18 C          66.3539   91.6470   13.9695 C.ar    1  UNL1        0.0560
     19 CL         67.0865   91.3164   15.2360 Cl      1  UNL1       -0.0825
     20 C          62.7871   86.3884   12.2905 C.ar    1  UNL1        0.0871
     21 C          63.0312   87.8424   12.0144 C.ar    1  UNL1        0.0240
     22 C          62.2998   88.5270   10.8980 C.ar    1  UNL1        0.0592
     23 C          61.3242   87.7575   10.0577 C.ar    1  UNL1        0.2251
     24 N          61.0801   86.3035   10.3338 N.ar    1  UNL1       -0.2086
     25 C          61.8115   85.6190   11.4502 C.ar    1  UNL1        0.1196
     26 O          60.5927   88.4421    8.9413 O.3     1  UNL1       -0.4561
     27 C          59.6496   87.6624    8.0736 C.3     1  UNL1        0.2542
     28 C          63.4045   83.1910   12.5027 C.3     1  UNL1        0.2079
     29 C          64.1726   83.0495   10.0248 C.3     1  UNL1        0.1747
     30 O          64.3908   82.7252   11.4730 O.3     1  UNL1       -0.3430
@<TRIPOS>BOND
     1    29    30    1
     2    30    28    1
     3    28     1    1
     4     1     2   ar
     5     2     3   ar
     6     3     4   ar
     7     4     6    1
     8     6     7    1
     9     8     7    1
    10     8     9    1
    11     9    10    1
    12    10    12    1
    13    12    13   ar
    14    13    14   ar
    15    14    15   ar
    16    15    16    1
    17    15    17   ar
    18    17    18   ar
    19    18    19    1
    20    10    11    1
    21     4     5   ar
    22     5    20    1
    23    20    21   ar
    24    21    22   ar
    25    22    23   ar
    26    23    26    1
    27    26    27    1
    28    23    24   ar
    29    24    25   ar
    30     5     1   ar
    31    25    20   ar
    32    11     6    1
    33    10     8    1
    34    18    12   ar
@<TRIPOS>MOLECULE
*****
 30 34 0 0 0
SMALL
GASTEIGER

@<TRIPOS>ATOM
      1 C          63.1546   84.4853   13.0581 C.ar    1  UNL1        0.1783
      2 N          64.0136   84.6480   14.2770 N.ar    1  UNL1       -0.1291
      3 N          64.3361   86.1053   14.4255 N.ar    1  UNL1       -0.1126
      4 C          63.6766   86.8433   13.2984 C.ar    1  UNL1        0.2255
      5 N          62.9463   85.8420   12.4533 N.ar    1  UNL1       -0.2620
      6 N          63.7367   88.3227   13.0586 N.pl3   1  UNL1       -0.2777
      7 C          62.8920   89.0936   12.0879 C.3     1  UNL1        0.0939
      8 C          63.2853   90.5384   12.1767 C.3     1  UNL1        0.0256
      9 C          63.8813   91.8807   12.4817 C.3     1  UNL1        0.0079
     10 C          64.3731   90.6605   13.2022 C.3     1  UNL1        0.0397
     11 C          64.6521   89.2911   13.7472 C.3     1  UNL1        0.0976
     12 C          65.3914   91.3737   14.0414 C.ar    1  UNL1       -0.0104
     13 C          66.7040   91.7828   13.4416 C.ar    1  UNL1       -0.0011
     14 C          67.7223   92.4961   14.2809 C.ar    1  UNL1        0.0294
     15 C          67.4280   92.8003   15.7200 C.ar    1  UNL1        0.1410
     16 F          68.4463   93.5136   16.5592 F       1  UNL1       -0.2041
     17 C          66.1153   92.3912   16.3198 C.ar    1  UNL1        0.0407
     18 C          65.0971   91.6779   15.4805 C.ar    1  UNL1        0.0560
     19 CL         63.7845   91.2688   16.0803 Cl      1  UNL1       -0.0825
     20 C          62.1480   86.1445   11.2200 C.ar    1  UNL1        0.0871
     21 C          62.6091   85.6388    9.8852 C.ar    1  UNL1        0.0240
     22 C          61.8107   85.9414    8.6519 C.ar    1  UNL1        0.0592
     23 C          60.5511   86.7496    8.7534 C.ar    1  UNL1        0.2251
     24 N          60.0900   87.2552   10.0881 N.ar    1  UNL1       -0.2086
     25 C          60.8884   86.9527   11.3214 C.ar    1  UNL1        0.1196
     26 O          59.7527   87.0521    7.5201 O.3     1  UNL1       -0.4561
     27 C          59.2118   88.4334    7.2970 C.3     1  UNL1        0.2542
     28 C          62.6010   83.1927   12.5357 C.3     1  UNL1        0.2079
     29 C          61.6503   81.4734   14.2357 C.3     1  UNL1        0.1747
     30 O          62.7577   81.9325   13.3342 O.3     1  UNL1       -0.3430
@<TRIPOS>BOND
     1    29    30    1
     2    30    28    1
     3    28     1    1
     4     1     2   ar
     5     2     3   ar
     6     3     4   ar
     7     4     6    1
     8     6     7    1
     9     8     7    1
    10     8     9    1
    11     9    10    1
    12    10    12    1
    13    12    13   ar
    14    13    14   ar
    15    14    15   ar
    16    15    16    1
    17    15    17   ar
    18    17    18   ar
    19    18    19    1
    20    10    11    1
    21     4     5   ar
    22     5    20    1
    23    20    21   ar
    24    21    22   ar
    25    22    23   ar
    26    23    26    1
    27    26    27    1
    28    23    24   ar
    29    24    25   ar
    30     5     1   ar
    31    25    20   ar
    32    11     6    1
    33    10     8    1
    34    18    12   ar
@<TRIPOS>MOLECULE
*****
 30 34 0 0 0
SMALL
GASTEIGER

@<TRIPOS>ATOM
      1 C          63.3085   84.1072   13.2986 C.ar    1  UNL1        0.1783
      2 N          63.7779   84.5458   14.6540 N.ar    1  UNL1       -0.1291
      3 N          63.8791   86.0423   14.6476 N.ar    1  UNL1       -0.1126
      4 C          63.4723   86.5286   13.2882 C.ar    1  UNL1        0.2255
      5 N          63.1197   85.3326   12.4545 N.ar    1  UNL1       -0.2620
      6 N          63.4262   87.9597   12.8410 N.pl3   1  UNL1       -0.2777
      7 C          62.5702   88.5123   11.7403 C.3     1  UNL1        0.0939
      8 C          62.8430   89.9836   11.6350 C.3     1  UNL1        0.0256
      9 C          63.3154   91.4012   11.7657 C.3     1  UNL1        0.0079
     10 C          63.8677   90.3402   12.6708 C.3     1  UNL1        0.0397
     11 C          64.2281   89.0894   13.4161 C.3     1  UNL1        0.0976
     12 C          64.7850   91.2481   13.4351 C.ar    1  UNL1       -0.0104
     13 C          64.7727   91.2368   14.9350 C.ar    1  UNL1       -0.0011
     14 C          65.6901   92.1447   15.6995 C.ar    1  UNL1        0.0294
     15 C          66.6198   93.0638   14.9639 C.ar    1  UNL1        0.1410
     16 F          67.5371   93.9717   15.7282 F       1  UNL1       -0.2041
     17 C          66.6320   93.0750   13.4639 C.ar    1  UNL1        0.0407
     18 C          65.7147   92.1672   12.6996 C.ar    1  UNL1        0.0560
     19 CL         65.7270   92.1784   11.1997 Cl      1  UNL1       -0.0825
     20 C          62.6590   85.3577   11.0271 C.ar    1  UNL1        0.0871
     21 C          61.3622   86.0210   10.6690 C.ar    1  UNL1        0.0240
     22 C          60.9016   86.0460    9.2417 C.ar    1  UNL1        0.0592
     23 C          61.7379   85.4078    8.1725 C.ar    1  UNL1        0.2251
     24 N          63.0347   84.7445    8.5306 N.ar    1  UNL1       -0.2086
     25 C          63.4953   84.7195    9.9579 C.ar    1  UNL1        0.1196
     26 O          61.2773   85.4328    6.7451 O.3     1  UNL1       -0.4561
     27 C          61.7230   84.3615    5.7944 C.3     1  UNL1        0.2542
     28 C          63.0699   82.6915   12.8636 C.3     1  UNL1        0.2079
     29 C          61.3166   81.2666   14.1463 C.3     1  UNL1        0.1747
     30 O          62.7453   81.6387   13.8816 O.3     1  UNL1       -0.3430
@<TRIPOS>BOND
     1    29    30    1
     2    30    28    1
     3    28     1    1
     4     1     2   ar
     5     2     3   ar
     6     3     4   ar
     7     4     6    1
     8     6     7    1
     9     8     7    1
    10     8     9    1
    11     9    10    1
    12    10    12    1
    13    12    13   ar
    14    13    14   ar
    15    14    15   ar
    16    15    16    1
    17    15    17   ar
    18    17    18   ar
    19    18    19    1
    20    10    11    1
    21     4     5   ar
    22     5    20    1
    23    20    21   ar
    24    21    22   ar
    25    22    23   ar
    26    23    26    1
    27    26    27    1
    28    23    24   ar
    29    24    25   ar
    30     5     1   ar
    31    25    20   ar
    32    11     6    1
    33    10     8    1
    34    18    12   ar
@<TRIPOS>MOLECULE
*****
 30 34 0 0 0
SMALL
GASTEIGER

@<TRIPOS>ATOM
      1 C          61.0550   88.5630   10.3138 C.ar    1  UNL1        0.1783
      2 N          60.7142   89.7259    9.4298 N.ar    1  UNL1       -0.1291
      3 N          61.6742   90.8372    9.7350 N.ar    1  UNL1       -0.1126
      4 C          62.6083   90.3612   10.8078 C.ar    1  UNL1        0.2255
      5 N          62.2256   88.9557   11.1655 N.ar    1  UNL1       -0.2620
      6 N          63.7285   91.1520   11.4161 N.pl3   1  UNL1       -0.2777
      7 C          64.2265   91.0344   12.8261 C.3     1  UNL1        0.0939
      8 C          65.3531   92.0089   13.0026 C.3     1  UNL1        0.0256
      9 C          66.4223   93.0536   12.8789 C.3     1  UNL1        0.0079
     10 C          65.5514   92.7287   11.7016 C.3     1  UNL1        0.0397
     11 C          64.5473   92.1991   10.7211 C.3     1  UNL1        0.0976
     12 C          66.1882   93.7079   10.7606 C.ar    1  UNL1       -0.0104
     13 C          65.6510   95.1045   10.6549 C.ar    1  UNL1       -0.0011
     14 C          66.2878   96.0838    9.7138 C.ar    1  UNL1        0.0294
     15 C          67.4617   95.6665    8.8784 C.ar    1  UNL1        0.1410
     16 F          68.0985   96.6457    7.9373 F       1  UNL1       -0.2041
     17 C          67.9988   94.2698    8.9841 C.ar    1  UNL1        0.0407
     18 C          67.3621   93.2906    9.9252 C.ar    1  UNL1        0.0560
     19 CL         67.8992   91.8941   10.0309 Cl      1  UNL1       -0.0825
     20 C          62.8960   88.0941   12.1943 C.ar    1  UNL1        0.0871
     21 C          63.6139   88.7264   13.3496 C.ar    1  UNL1        0.0240
     22 C          64.2842   87.8647   14.3784 C.ar    1  UNL1        0.0592
     23 C          64.2365   86.3709   14.2518 C.ar    1  UNL1        0.2251
     24 N          63.5186   85.7386   13.0965 N.ar    1  UNL1       -0.2086
     25 C          62.8483   86.6002   12.0677 C.ar    1  UNL1        0.1196
     26 O          64.9068   85.5092   15.2806 O.3     1  UNL1       -0.4561
     27 C          64.5919   84.0444   15.3524 C.3     1  UNL1        0.2542
     28 C          60.3491   87.2397   10.3414 C.3     1  UNL1        0.2079
     29 C          59.8884   86.3199    7.9557 C.3     1  UNL1        0.1747
     30 O          60.6118   86.2271    9.2664 O.3     1  UNL1       -0.3430
@<TRIPOS>BOND
     1    29    30    1
     2    30    28    1
     3    28     1    1
     4     1     2   ar
     5     2     3   ar
     6     3     4   ar
     7     4     6    1
     8     6     7    1
     9     8     7    1
    10     8     9    1
    11     9    10    1
    12    10    12    1
    13    12    13   ar
    14    13    14   ar
    15    14    15   ar
    16    15    16    1
    17    15    17   ar
    18    17    18   ar
    19    18    19    1
    20    10    11    1
    21     4     5   ar
    22     5    20    1
    23    20    21   ar
    24    21    22   ar
    25    22    23   ar
    26    23    26    1
    27    26    27    1
    28    23    24   ar
    29    24    25   ar
    30     5     1   ar
    31    25    20   ar
    32    11     6    1
    33    10     8    1
    34    18    12   ar
@<TRIPOS>MOLECULE
*****
 30 34 0 0 0
SMALL
GASTEIGER

@<TRIPOS>ATOM
      1 C          61.7092   88.4433   10.9121 C.ar    1  UNL1        0.1783
      2 N          61.7985   89.0707    9.5525 N.ar    1  UNL1       -0.1291
      3 N          62.7357   90.2383    9.6415 N.ar    1  UNL1       -0.1126
      4 C          63.2257   90.3327   11.0560 C.ar    1  UNL1        0.2255
      5 N          62.5913   89.2233   11.8413 N.ar    1  UNL1       -0.2620
      6 N          64.1822   91.3567   11.5913 N.pl3   1  UNL1       -0.2777
      7 C          64.5870   91.5200   13.0264 C.3     1  UNL1        0.0939
      8 C          65.5568   92.6614   13.1076 C.3     1  UNL1        0.0256
      9 C          66.4824   93.8194   12.8787 C.3     1  UNL1        0.0079
     10 C          65.7513   93.2037   11.7226 C.3     1  UNL1        0.0397
     11 C          64.9018   92.3974   10.7856 C.3     1  UNL1        0.0976
     12 C          66.3181   94.1156   10.6752 C.ar    1  UNL1       -0.0104
     13 C          65.7863   95.5103   10.5277 C.ar    1  UNL1       -0.0011
     14 C          66.3531   96.4223    9.4801 C.ar    1  UNL1        0.0294
     15 C          67.4517   95.9394    8.5802 C.ar    1  UNL1        0.1410
     16 F          68.0184   96.8513    7.5327 F       1  UNL1       -0.2041
     17 C          67.9835   94.5446    8.7277 C.ar    1  UNL1        0.0407
     18 C          67.4167   93.6327    9.7752 C.ar    1  UNL1        0.0560
     19 CL         67.9485   92.2379    9.9227 Cl      1  UNL1       -0.0825
     20 C          62.8020   88.9431   13.2998 C.ar    1  UNL1        0.0871
     21 C          63.8235   87.9323   13.7295 C.ar    1  UNL1        0.0240
     22 C          64.0341   87.6522   15.1879 C.ar    1  UNL1        0.0592
     23 C          63.2232   88.3830   16.2167 C.ar    1  UNL1        0.2251
     24 N          62.2017   89.3938   15.7871 N.ar    1  UNL1       -0.2086
     25 C          61.9911   89.6739   14.3286 C.ar    1  UNL1        0.1196
     26 O          63.4339   88.1029   17.6752 O.3     1  UNL1       -0.4561
     27 C          62.7006   86.9730   18.3354 C.3     1  UNL1        0.2542
     28 C          60.8829   87.2461   11.2781 C.3     1  UNL1        0.2079
     29 C          62.3672   85.1184   11.1390 C.3     1  UNL1        0.1747
     30 O          61.5265   86.0654   11.9428 O.3     1  UNL1       -0.3430
@<TRIPOS>BOND
     1    29    30    1
     2    30    28    1
     3    28     1    1
     4     1     2   ar
     5     2     3   ar
     6     3     4   ar
     7     4     6    1
     8     6     7    1
     9     8     7    1
    10     8     9    1
    11     9    10    1
    12    10    12    1
    13    12    13   ar
    14    13    14   ar
    15    14    15   ar
    16    15    16    1
    17    15    17   ar
    18    17    18   ar
    19    18    19    1
    20    10    11    1
    21     4     5   ar
    22     5    20    1
    23    20    21   ar
    24    21    22   ar
    25    22    23   ar
    26    23    26    1
    27    26    27    1
    28    23    24   ar
    29    24    25   ar
    30     5     1   ar
    31    25    20   ar
    32    11     6    1
    33    10     8    1
    34    18    12   ar
