@<TRIPOS>MOLECULE
*****
 43 46 0 0 0
SMALL
GASTEIGER

@<TRIPOS>ATOM
      1 C          61.9214   88.3739   11.0485 C.3     1  UNL1        0.0799
      2 C          62.9125   89.3972   11.5183 C.ar    1  UNL1        0.0374
      3 C          63.2343   90.5812   10.6554 C.ar    1  UNL1        0.0023
      4 C          64.2253   91.6044   11.1252 C.ar    1  UNL1        0.0181
      5 C          64.5470   92.7884   10.2623 C.ar    1  UNL1        0.0082
      6 C          65.5381   93.8117   10.7322 C.ar    1  UNL1        0.0347
      7 BR         65.8598   94.9957    9.8692 Br      1  UNL1       -0.0490
      8 C          66.2073   93.6510   12.0649 C.ar    1  UNL1        0.0082
      9 C          65.8856   92.4670   12.9278 C.ar    1  UNL1        0.0197
     10 C          64.8946   91.4437   12.4580 C.ar    1  UNL1        0.0844
     11 N          64.5728   90.2598   13.3209 N.ar    1  UNL1       -0.2119
     12 C          63.5818   89.2364   12.8511 C.ar    1  UNL1        0.2211
     13 O          63.2600   88.0525   13.7140 O.3     1  UNL1       -0.4563
     14 C          64.3357   87.4127   14.5409 C.3     1  UNL1        0.2542
     15 C          62.4010   87.0854   10.4486 C.ar    1  UNL1        0.0148
     16 C          62.9974   87.0751    9.0723 C.ar    1  UNL1       -0.0014
     17 C          63.4771   85.7867    8.4723 C.ar    1  UNL1        0.0029
     18 C          63.3602   84.5085    9.2487 C.ar    1  UNL1        0.0392
     19 C          62.7638   84.5189   10.6250 C.ar    1  UNL1        0.1657
     20 C          62.2842   85.8073   11.2249 C.ar    1  UNL1        0.1702
     21 F          61.6877   85.8176   12.6012 F       1  UNL1       -0.2013
     22 O          62.6469   83.2408   11.4014 O.3     1  UNL1       -0.4692
     23 C          63.5795   82.1013   11.1150 C.3     1  UNL1        0.2526
     24 C          60.4508   88.6391   11.1785 C.3     1  UNL1        0.1162
     25 O          60.6283   88.9046   12.6441 O.3     1  UNL1       -0.3820
     26 H          59.7699   89.1235   13.0393 H       1  UNL1        0.2107
     27 C          59.9667   86.6986    7.7507 C.ar    1  UNL1        0.2271
     28 C          60.1442   86.9641    9.2163 C.ar    1  UNL1        0.0559
     29 C          60.2733   88.3735    9.7129 C.ar    1  UNL1        0.0117
     30 C          60.2249   89.5175    8.7439 C.ar    1  UNL1        0.0559
     31 C          60.0474   89.2520    7.2783 C.ar    1  UNL1        0.2271
     32 N          59.9183   87.8425    6.7817 N.ar    1  UNL1       -0.1767
     33 O          59.8377   85.2890    7.2541 O.3     1  UNL1       -0.4602
     34 C          61.5547   84.4379    5.4998 C.3     1  UNL1        0.0512
     35 C          61.0662   84.4972    6.9168 C.3     1  UNL1        0.2072
     36 O          59.9990   90.3960    6.3093 O.3     1  UNL1       -0.4602
     37 C          58.7356   90.6868    5.5548 C.3     1  UNL1        0.2072
     38 C          58.6335   91.9228    4.7111 C.3     1  UNL1        0.0512
     39 C          58.9802   88.9043   11.3086 C.3     1  UNL1        0.0491
     40 C          58.4392   89.5340   12.5578 C.3     1  UNL1        0.0750
     41 N          57.9351   88.6700   13.6756 N.3     1  UNL1       -0.2702
     42 C          58.7446   88.5172   14.9291 C.3     1  UNL1        0.0897
     43 C          56.6214   87.9588   13.5398 C.3     1  UNL1        0.0897
@<TRIPOS>BOND
     1    34    35    1
     2    35    33    1
     3    33    27    1
     4    27    28   ar
     5    28    29   ar
     6    29    24    1
     7    24    25    1
     8    24    39    1
     9    39    40    1
    10    40    41    1
    11    41    42    1
    12    41    43    1
    13    24     1    1
    14     1     2    1
    15     2     3   ar
    16     3     4   ar
    17     4     5   ar
    18     5     6   ar
    19     6     7    1
    20     6     8   ar
    21     8     9   ar
    22     9    10   ar
    23    10    11   ar
    24    11    12   ar
    25    12    13    1
    26    13    14    1
    27     1    15    1
    28    15    16   ar
    29    16    17   ar
    30    17    18   ar
    31    18    19   ar
    32    19    22    1
    33    22    23    1
    34    19    20   ar
    35    20    21    1
    36    29    30   ar
    37    30    31   ar
    38    31    36    1
    39    36    37    1
    40    37    38    1
    41    31    32   ar
    42    32    27   ar
    43    12     2   ar
    44    20    15   ar
    45    10     4   ar
    46    25    26    1
@<TRIPOS>MOLECULE
*****
 43 46 0 0 0
SMALL
GASTEIGER

@<TRIPOS>ATOM
      1 C          61.9230   88.3313   11.0408 C.3     1  UNL1        0.0799
      2 C          62.9082   89.3590   11.5132 C.ar    1  UNL1        0.0374
      3 C          63.2225   90.5474   10.6535 C.ar    1  UNL1        0.0023
      4 C          64.2077   91.5752   11.1258 C.ar    1  UNL1        0.0181
      5 C          64.5219   92.7636   10.2662 C.ar    1  UNL1        0.0082
      6 C          65.5072   93.7914   10.7386 C.ar    1  UNL1        0.0347
      7 BR         65.8214   94.9798    9.8789 Br      1  UNL1       -0.0490
      8 C          66.1781   93.6307   12.0705 C.ar    1  UNL1        0.0082
      9 C          65.8638   92.4424   12.9301 C.ar    1  UNL1        0.0197
     10 C          64.8786   91.4146   12.4578 C.ar    1  UNL1        0.0844
     11 N          64.5643   90.2262   13.3174 N.ar    1  UNL1       -0.2119
     12 C          63.5791   89.1984   12.8451 C.ar    1  UNL1        0.2211
     13 O          63.2648   88.0100   13.7047 O.3     1  UNL1       -0.4563
     14 C          64.3449   87.3736   14.5285 C.3     1  UNL1        0.2542
     15 C          62.4099   87.0482   10.4354 C.ar    1  UNL1        0.0148
     16 C          62.9913   87.0446    9.0527 C.ar    1  UNL1       -0.0014
     17 C          63.4783   85.7614    8.4472 C.ar    1  UNL1        0.0029
     18 C          63.3837   84.4820    9.2244 C.ar    1  UNL1        0.0392
     19 C          62.8021   84.4857   10.6071 C.ar    1  UNL1        0.1657
     20 C          62.3152   85.7687   11.2126 C.ar    1  UNL1        0.1702
     21 F          61.7338   85.7724   12.5952 F       1  UNL1       -0.2013
     22 O          62.7075   83.2062   11.3843 O.3     1  UNL1       -0.4692
     23 C          63.8323   82.7914   12.2859 C.3     1  UNL1        0.2526
     24 C          60.4509   88.5866   11.1740 C.3     1  UNL1        0.1162
     25 O          60.6285   88.8456   12.6407 O.3     1  UNL1       -0.3820
     26 H          59.7692   89.0571   13.0381 H       1  UNL1        0.2107
     27 C          60.0442   89.2171    7.2769 C.ar    1  UNL1        0.2271
     28 C          60.2218   89.4761    8.7437 C.ar    1  UNL1        0.0559
     29 C          60.2733   88.3277    9.7072 C.ar    1  UNL1        0.0117
     30 C          60.1472   86.9203    9.2039 C.ar    1  UNL1        0.0559
     31 C          59.9697   86.6613    7.7372 C.ar    1  UNL1        0.2271
     32 N          59.9181   87.8098    6.7737 N.ar    1  UNL1       -0.1767
     33 O          59.9927   90.3657    6.3134 O.3     1  UNL1       -0.4602
     34 C          58.6090   91.9058    4.7438 C.3     1  UNL1        0.0512
     35 C          58.7353   90.6434    5.5441 C.3     1  UNL1        0.2072
     36 O          59.8436   85.2538    7.2339 O.3     1  UNL1       -0.4602
     37 C          61.0737   84.4675    6.8897 C.3     1  UNL1        0.2072
     38 C          61.5843   84.4529    5.4794 C.3     1  UNL1        0.0512
     39 C          58.9788   88.8420   11.3071 C.3     1  UNL1        0.0491
     40 C          58.4399   89.4955   12.5450 C.3     1  UNL1        0.0750
     41 N          57.9228   88.6533   13.6733 N.3     1  UNL1       -0.2702
     42 C          58.7304   88.5029   14.9283 C.3     1  UNL1        0.0897
     43 C          56.5980   87.9614   13.5467 C.3     1  UNL1        0.0897
@<TRIPOS>BOND
     1    34    35    1
     2    35    33    1
     3    33    27    1
     4    27    28   ar
     5    28    29   ar
     6    29    24    1
     7    24    25    1
     8    24    39    1
     9    39    40    1
    10    40    41    1
    11    41    42    1
    12    41    43    1
    13    24     1    1
    14     1     2    1
    15     2     3   ar
    16     3     4   ar
    17     4     5   ar
    18     5     6   ar
    19     6     7    1
    20     6     8   ar
    21     8     9   ar
    22     9    10   ar
    23    10    11   ar
    24    11    12   ar
    25    12    13    1
    26    13    14    1
    27     1    15    1
    28    15    16   ar
    29    16    17   ar
    30    17    18   ar
    31    18    19   ar
    32    19    22    1
    33    22    23    1
    34    19    20   ar
    35    20    21    1
    36    29    30   ar
    37    30    31   ar
    38    31    36    1
    39    36    37    1
    40    37    38    1
    41    31    32   ar
    42    32    27   ar
    43    12     2   ar
    44    20    15   ar
    45    10     4   ar
    46    25    26    1
@<TRIPOS>MOLECULE
*****
 43 46 0 0 0
SMALL
GASTEIGER

@<TRIPOS>ATOM
      1 C          62.1722   88.9714   11.3674 C.3     1  UNL1        0.0799
      2 C          62.3969   87.5308   11.0148 C.ar    1  UNL1        0.0374
      3 C          62.9128   86.5767   12.0510 C.ar    1  UNL1        0.0023
      4 C          63.1375   85.1362   11.6985 C.ar    1  UNL1        0.0181
      5 C          63.6534   84.1822   12.7347 C.ar    1  UNL1        0.0082
      6 C          63.8781   82.7416   12.3821 C.ar    1  UNL1        0.0347
      7 BR         64.3939   81.7875   13.4183 Br      1  UNL1       -0.0490
      8 C          63.5870   82.2551   10.9934 C.ar    1  UNL1        0.0082
      9 C          63.0711   83.2091    9.9572 C.ar    1  UNL1        0.0197
     10 C          62.8464   84.6497   10.3097 C.ar    1  UNL1        0.0844
     11 N          62.3306   85.6037    9.2735 N.ar    1  UNL1       -0.2119
     12 C          62.1058   87.0443    9.6261 C.ar    1  UNL1        0.2211
     13 O          61.5900   87.9984    8.5899 O.3     1  UNL1       -0.4563
     14 C          60.1143   88.1171    8.3482 C.3     1  UNL1        0.2542
     15 C          60.7874   89.4624   11.6695 C.ar    1  UNL1        0.0148
     16 C          60.3495   90.8140   11.1887 C.ar    1  UNL1       -0.0014
     17 C          58.9646   91.3051   11.4908 C.ar    1  UNL1        0.0029
     18 C          58.0178   90.4444   12.2736 C.ar    1  UNL1        0.0392
     19 C          58.4559   89.0927   12.7544 C.ar    1  UNL1        0.1657
     20 C          59.8406   88.6017   12.4523 C.ar    1  UNL1        0.1702
     21 F          60.2786   87.2501   12.9331 F       1  UNL1       -0.2013
     22 O          57.5091   88.2321   13.5373 O.3     1  UNL1       -0.4692
     23 C          56.0616   88.1643   13.1493 C.3     1  UNL1        0.2526
     24 C          63.3323   89.9209   11.4179 C.3     1  UNL1        0.1162
     25 O          63.1687   90.1987    9.9530 O.3     1  UNL1       -0.3820
     26 H          63.8407   90.8375    9.6680 H       1  UNL1        0.2107
     27 C          63.5038   90.4761   15.3438 C.ar    1  UNL1        0.2271
     28 C          63.3402   90.7539   13.8788 C.ar    1  UNL1        0.0559
     29 C          63.4959   89.6432   12.8829 C.ar    1  UNL1        0.0117
     30 C          63.8152   88.2546   13.3518 C.ar    1  UNL1        0.0559
     31 C          63.9789   87.9769   14.8168 C.ar    1  UNL1        0.2271
     32 N          63.8231   89.0876   15.8127 N.ar    1  UNL1       -0.1767
     33 O          63.3481   91.5869   16.3397 O.3     1  UNL1       -0.4602
     34 C          65.7855   92.3982   15.9517 C.3     1  UNL1        0.0512
     35 C          64.5516   92.3527   16.8034 C.3     1  UNL1        0.2072
     36 O          64.2982   86.5882   15.2858 O.3     1  UNL1       -0.4602
     37 C          63.2983   85.8237   16.1017 C.3     1  UNL1        0.2072
     38 C          62.8958   86.3250   17.4569 C.3     1  UNL1        0.0512
     39 C          64.4924   90.8705   11.4684 C.3     1  UNL1        0.0491
     40 C          64.4916   92.1018   10.6117 C.3     1  UNL1        0.0750
     41 N          65.7061   92.9806   10.5606 N.3     1  UNL1       -0.2702
     42 C          67.0655   92.3719   10.3831 C.3     1  UNL1        0.0897
     43 C          65.5613   94.4682   10.6869 C.3     1  UNL1        0.0897
@<TRIPOS>BOND
     1    34    35    1
     2    35    33    1
     3    33    27    1
     4    27    28   ar
     5    28    29   ar
     6    29    24    1
     7    24    25    1
     8    24    39    1
     9    39    40    1
    10    40    41    1
    11    41    42    1
    12    41    43    1
    13    24     1    1
    14     1     2    1
    15     2     3   ar
    16     3     4   ar
    17     4     5   ar
    18     5     6   ar
    19     6     7    1
    20     6     8   ar
    21     8     9   ar
    22     9    10   ar
    23    10    11   ar
    24    11    12   ar
    25    12    13    1
    26    13    14    1
    27     1    15    1
    28    15    16   ar
    29    16    17   ar
    30    17    18   ar
    31    18    19   ar
    32    19    22    1
    33    22    23    1
    34    19    20   ar
    35    20    21    1
    36    29    30   ar
    37    30    31   ar
    38    31    36    1
    39    36    37    1
    40    37    38    1
    41    31    32   ar
    42    32    27   ar
    43    12     2   ar
    44    20    15   ar
    45    10     4   ar
    46    25    26    1
@<TRIPOS>MOLECULE
*****
 43 46 0 0 0
SMALL
GASTEIGER

@<TRIPOS>ATOM
      1 C          62.1608   88.9885   11.3581 C.3     1  UNL1        0.0799
      2 C          62.3844   87.5488   11.0011 C.ar    1  UNL1        0.0374
      3 C          62.9049   86.5924   12.0328 C.ar    1  UNL1        0.0023
      4 C          63.1285   85.1528   11.6758 C.ar    1  UNL1        0.0181
      5 C          63.6490   84.1964   12.7075 C.ar    1  UNL1        0.0082
      6 C          63.8725   82.7567   12.3505 C.ar    1  UNL1        0.0347
      7 BR         64.3931   81.8003   13.3822 Br      1  UNL1       -0.0490
      8 C          63.5756   82.2734   10.9619 C.ar    1  UNL1        0.0082
      9 C          63.0551   83.2299    9.9302 C.ar    1  UNL1        0.0197
     10 C          62.8315   84.6695   10.2872 C.ar    1  UNL1        0.0844
     11 N          62.3110   85.6259    9.2555 N.ar    1  UNL1       -0.2119
     12 C          62.0875   87.0656    9.6125 C.ar    1  UNL1        0.2211
     13 O          61.5670   88.0220    8.5808 O.3     1  UNL1       -0.4563
     14 C          60.0923   88.1180    8.3233 C.3     1  UNL1        0.2542
     15 C          60.7763   89.4799   11.6607 C.ar    1  UNL1        0.0148
     16 C          60.3351   90.8274   11.1711 C.ar    1  UNL1       -0.0014
     17 C          58.9505   91.3188   11.4737 C.ar    1  UNL1        0.0029
     18 C          58.0072   90.4628   12.2658 C.ar    1  UNL1        0.0392
     19 C          58.4485   89.1153   12.7553 C.ar    1  UNL1        0.1657
     20 C          59.8330   88.6239   12.4528 C.ar    1  UNL1        0.1702
     21 F          60.2743   87.2765   12.9423 F       1  UNL1       -0.2013
     22 O          57.5052   88.2593   13.5474 O.3     1  UNL1       -0.4692
     23 C          56.0738   88.1262   13.1192 C.3     1  UNL1        0.2526
     24 C          63.3219   89.9367   11.4125 C.3     1  UNL1        0.1162
     25 O          63.1686   90.2085    9.9453 O.3     1  UNL1       -0.3820
     26 H          63.8434   90.8452    9.6622 H       1  UNL1        0.2107
     27 C          63.9166   88.0011   14.8257 C.ar    1  UNL1        0.2271
     28 C          63.7633   88.2729   13.3585 C.ar    1  UNL1        0.0559
     29 C          63.4751   89.6649   12.8797 C.ar    1  UNL1        0.0117
     30 C          63.3401   90.7851   13.8681 C.ar    1  UNL1        0.0559
     31 C          63.4933   90.5132   15.3353 C.ar    1  UNL1        0.2271
     32 N          63.7816   89.1213   15.8140 N.ar    1  UNL1       -0.1767
     33 O          64.2048   86.6090   15.3044 O.3     1  UNL1       -0.4602
     34 C          62.8205   86.3704   17.4900 C.3     1  UNL1        0.0512
     35 C          63.1872   85.8719   16.1236 C.3     1  UNL1        0.2072
     36 O          63.3583   91.6335   16.3237 O.3     1  UNL1       -0.4602
     37 C          64.5775   92.3706   16.7930 C.3     1  UNL1        0.2072
     38 C          65.8187   92.3800   15.9508 C.3     1  UNL1        0.0512
     39 C          64.4829   90.8849   11.4669 C.3     1  UNL1        0.0491
     40 C          64.4845   92.1183   10.6132 C.3     1  UNL1        0.0750
     41 N          65.7026   92.9921   10.5603 N.3     1  UNL1       -0.2702
     42 C          67.0602   92.3770   10.3916 C.3     1  UNL1        0.0897
     43 C          65.5630   94.4811   10.6760 C.3     1  UNL1        0.0897
@<TRIPOS>BOND
     1    34    35    1
     2    35    33    1
     3    33    27    1
     4    27    28   ar
     5    28    29   ar
     6    29    24    1
     7    24    25    1
     8    24    39    1
     9    39    40    1
    10    40    41    1
    11    41    42    1
    12    41    43    1
    13    24     1    1
    14     1     2    1
    15     2     3   ar
    16     3     4   ar
    17     4     5   ar
    18     5     6   ar
    19     6     7    1
    20     6     8   ar
    21     8     9   ar
    22     9    10   ar
    23    10    11   ar
    24    11    12   ar
    25    12    13    1
    26    13    14    1
    27     1    15    1
    28    15    16   ar
    29    16    17   ar
    30    17    18   ar
    31    18    19   ar
    32    19    22    1
    33    22    23    1
    34    19    20   ar
    35    20    21    1
    36    29    30   ar
    37    30    31   ar
    38    31    36    1
    39    36    37    1
    40    37    38    1
    41    31    32   ar
    42    32    27   ar
    43    12     2   ar
    44    20    15   ar
    45    10     4   ar
    46    25    26    1
@<TRIPOS>MOLECULE
*****
 43 46 0 0 0
SMALL
GASTEIGER

@<TRIPOS>ATOM
      1 C          62.2873   89.3152   12.1757 C.3     1  UNL1        0.0799
      2 C          62.8006   87.9653   12.5811 C.ar    1  UNL1        0.0374
      3 C          62.7107   86.8113   11.6270 C.ar    1  UNL1        0.0023
      4 C          63.2239   85.4614   12.0323 C.ar    1  UNL1        0.0181
      5 C          63.1340   84.3074   11.0782 C.ar    1  UNL1        0.0082
      6 C          63.6473   82.9574   11.4835 C.ar    1  UNL1        0.0347
      7 BR         63.5573   81.8034   10.5295 Br      1  UNL1       -0.0490
      8 C          64.2504   82.7615   12.8428 C.ar    1  UNL1        0.0082
      9 C          64.3403   83.9155   13.7969 C.ar    1  UNL1        0.0197
     10 C          63.8271   85.2654   13.3916 C.ar    1  UNL1        0.0844
     11 N          63.9170   86.4194   14.3457 N.ar    1  UNL1       -0.2119
     12 C          63.4037   87.7693   13.9404 C.ar    1  UNL1        0.2211
     13 O          63.4936   88.9233   14.8944 O.3     1  UNL1       -0.4563
     14 C          63.2223   88.7122   16.3546 C.3     1  UNL1        0.2542
     15 C          63.2432   90.3702   11.7031 C.ar    1  UNL1        0.0148
     16 C          63.4692   90.5737   10.2343 C.ar    1  UNL1       -0.0014
     17 C          64.4252   91.6287    9.7617 C.ar    1  UNL1        0.0029
     18 C          65.1550   92.4800   10.7579 C.ar    1  UNL1        0.0392
     19 C          64.9290   92.2764   12.2268 C.ar    1  UNL1        0.1657
     20 C          63.9731   91.2215   12.6994 C.ar    1  UNL1        0.1702
     21 F          63.7471   91.0180   14.1682 F       1  UNL1       -0.2013
     22 O          65.6588   93.1278   13.2230 O.3     1  UNL1       -0.4692
     23 C          66.9698   92.6656   13.7868 C.3     1  UNL1        0.2526
     24 C          60.8181   89.6102   12.2430 C.3     1  UNL1        0.1162
     25 O          60.9826   90.1088   13.6482 O.3     1  UNL1       -0.3820
     26 H          60.1223   90.3961   13.9921 H       1  UNL1        0.2107
     27 C          60.6515   87.1527    9.1313 C.ar    1  UNL1        0.2271
     28 C          60.8159   87.6513   10.5364 C.ar    1  UNL1        0.0559
     29 C          60.6537   89.1117   10.8379 C.ar    1  UNL1        0.0117
     30 C          60.3270   90.0735    9.7342 C.ar    1  UNL1        0.0559
     31 C          60.1625   89.5749    8.3291 C.ar    1  UNL1        0.2271
     32 N          60.3248   88.1146    8.0276 N.ar    1  UNL1       -0.1767
     33 O          60.8137   85.6923    8.8298 O.3     1  UNL1       -0.4602
     34 C          62.8585   84.8832    7.4462 C.3     1  UNL1        0.0512
     35 C          61.4081   85.2578    7.5229 C.3     1  UNL1        0.2072
     36 O          59.8358   90.5369    7.2254 O.3     1  UNL1       -0.4602
     37 C          59.1101   90.0576    6.0032 C.3     1  UNL1        0.2072
     38 C          58.2034   90.9898    5.2556 C.3     1  UNL1        0.0512
     39 C          59.3490   89.9052   12.3103 C.3     1  UNL1        0.0491
     40 C          58.3553   88.7831   12.2517 C.3     1  UNL1        0.0750
     41 N          57.6497   88.3402   13.4990 N.3     1  UNL1       -0.2702
     42 C          58.3935   88.2795   14.8001 C.3     1  UNL1        0.0897
     43 C          56.2002   87.9579   13.4453 C.3     1  UNL1        0.0897
@<TRIPOS>BOND
     1    34    35    1
     2    35    33    1
     3    33    27    1
     4    27    28   ar
     5    28    29   ar
     6    29    24    1
     7    24    25    1
     8    24    39    1
     9    39    40    1
    10    40    41    1
    11    41    42    1
    12    41    43    1
    13    24     1    1
    14     1     2    1
    15     2     3   ar
    16     3     4   ar
    17     4     5   ar
    18     5     6   ar
    19     6     7    1
    20     6     8   ar
    21     8     9   ar
    22     9    10   ar
    23    10    11   ar
    24    11    12   ar
    25    12    13    1
    26    13    14    1
    27     1    15    1
    28    15    16   ar
    29    16    17   ar
    30    17    18   ar
    31    18    19   ar
    32    19    22    1
    33    22    23    1
    34    19    20   ar
    35    20    21    1
    36    29    30   ar
    37    30    31   ar
    38    31    36    1
    39    36    37    1
    40    37    38    1
    41    31    32   ar
    42    32    27   ar
    43    12     2   ar
    44    20    15   ar
    45    10     4   ar
    46    25    26    1
@<TRIPOS>MOLECULE
*****
 43 46 0 0 0
SMALL
GASTEIGER

@<TRIPOS>ATOM
      1 C          62.2627   89.3184   12.1526 C.3     1  UNL1        0.0799
      2 C          62.7823   87.9715   12.5600 C.ar    1  UNL1        0.0374
      3 C          62.6874   86.8129   11.6121 C.ar    1  UNL1        0.0023
      4 C          63.2070   85.4660   12.0194 C.ar    1  UNL1        0.0181
      5 C          63.1121   84.3074   11.0714 C.ar    1  UNL1        0.0082
      6 C          63.6317   82.9605   11.4788 C.ar    1  UNL1        0.0347
      7 BR         63.5368   81.8019   10.5309 Br      1  UNL1       -0.0490
      8 C          64.2462   82.7723   12.8341 C.ar    1  UNL1        0.0082
      9 C          64.3412   83.9309   13.7821 C.ar    1  UNL1        0.0197
     10 C          63.8216   85.2777   13.3748 C.ar    1  UNL1        0.0844
     11 N          63.9165   86.4363   14.3227 N.ar    1  UNL1       -0.2119
     12 C          63.3969   87.7832   13.9153 C.ar    1  UNL1        0.2211
     13 O          63.4918   88.9418   14.8633 O.3     1  UNL1       -0.4563
     14 C          63.2551   88.7324   16.3297 C.3     1  UNL1        0.2542
     15 C          63.2139   90.3778   11.6806 C.ar    1  UNL1        0.0148
     16 C          63.4271   90.5937   10.2116 C.ar    1  UNL1       -0.0014
     17 C          64.3783   91.6531    9.7395 C.ar    1  UNL1        0.0029
     18 C          65.1162   92.4967   10.7364 C.ar    1  UNL1        0.0392
     19 C          64.9029   92.2808   12.2054 C.ar    1  UNL1        0.1657
     20 C          63.9518   91.2214   12.6775 C.ar    1  UNL1        0.1702
     21 F          63.7386   91.0056   14.1464 F       1  UNL1       -0.2013
     22 O          65.6409   93.1244   13.2023 O.3     1  UNL1       -0.4692
     23 C          66.9353   92.6384   13.7839 C.3     1  UNL1        0.2526
     24 C          60.7919   89.6058   12.2173 C.3     1  UNL1        0.1162
     25 O          60.9517   90.1074   13.6219 O.3     1  UNL1       -0.3820
     26 H          60.0894   90.3907   13.9641 H       1  UNL1        0.2107
     27 C          60.1667   89.5645    8.2985 C.ar    1  UNL1        0.2271
     28 C          60.3265   90.0660    9.7031 C.ar    1  UNL1        0.0559
     29 C          60.6321   89.1042   10.8127 C.ar    1  UNL1        0.0117
     30 C          60.7780   87.6408   10.5178 C.ar    1  UNL1        0.0559
     31 C          60.6182   87.1392    9.1132 C.ar    1  UNL1        0.2271
     32 N          60.3126   88.1010    8.0035 N.ar    1  UNL1       -0.1767
     33 O          59.8611   90.5264    7.1888 O.3     1  UNL1       -0.4602
     34 C          58.2319   91.0365    5.2303 C.3     1  UNL1        0.0512
     35 C          59.0878   90.0659    5.9888 C.3     1  UNL1        0.2072
     36 O          60.7641   85.6756    8.8183 O.3     1  UNL1       -0.4602
     37 C          61.3258   85.2283    7.5013 C.3     1  UNL1        0.2072
     38 C          62.7830   84.8934    7.3824 C.3     1  UNL1        0.0512
     39 C          59.3211   89.8932   12.2820 C.3     1  UNL1        0.0491
     40 C          58.3338   88.7650   12.2357 C.3     1  UNL1        0.0750
     41 N          57.6220   88.3395   13.4857 N.3     1  UNL1       -0.2702
     42 C          56.1751   87.9482   13.4286 C.3     1  UNL1        0.0897
     43 C          58.3571   88.3052   14.7927 C.3     1  UNL1        0.0897
@<TRIPOS>BOND
     1    34    35    1
     2    35    33    1
     3    33    27    1
     4    27    28   ar
     5    28    29   ar
     6    29    24    1
     7    24    25    1
     8    24    39    1
     9    39    40    1
    10    40    41    1
    11    41    42    1
    12    41    43    1
    13    24     1    1
    14     1     2    1
    15     2     3   ar
    16     3     4   ar
    17     4     5   ar
    18     5     6   ar
    19     6     7    1
    20     6     8   ar
    21     8     9   ar
    22     9    10   ar
    23    10    11   ar
    24    11    12   ar
    25    12    13    1
    26    13    14    1
    27     1    15    1
    28    15    16   ar
    29    16    17   ar
    30    17    18   ar
    31    18    19   ar
    32    19    22    1
    33    22    23    1
    34    19    20   ar
    35    20    21    1
    36    29    30   ar
    37    30    31   ar
    38    31    36    1
    39    36    37    1
    40    37    38    1
    41    31    32   ar
    42    32    27   ar
    43    12     2   ar
    44    20    15   ar
    45    10     4   ar
    46    25    26    1
@<TRIPOS>MOLECULE
*****
 43 46 0 0 0
SMALL
GASTEIGER

@<TRIPOS>ATOM
      1 C          63.1506   88.7827   12.1507 C.3     1  UNL1        0.0799
      2 C          62.1885   88.2483   11.1315 C.ar    1  UNL1        0.0374
      3 C          62.6604   87.2741   10.0930 C.ar    1  UNL1        0.0023
      4 C          61.6983   86.7397    9.0739 C.ar    1  UNL1        0.0181
      5 C          62.1702   85.7655    8.0354 C.ar    1  UNL1        0.0082
      6 C          61.2080   85.2311    7.0162 C.ar    1  UNL1        0.0347
      7 BR         61.6799   84.2569    5.9778 Br      1  UNL1       -0.0490
      8 C          59.7741   85.6708    7.0355 C.ar    1  UNL1        0.0082
      9 C          59.3022   86.6449    8.0739 C.ar    1  UNL1        0.0197
     10 C          60.2643   87.1794    9.0931 C.ar    1  UNL1        0.0844
     11 N          59.7924   88.1535   10.1315 N.ar    1  UNL1       -0.2119
     12 C          60.7545   88.6880   11.1507 C.ar    1  UNL1        0.2211
     13 O          60.2826   89.6621   12.1892 O.3     1  UNL1       -0.4563
     14 C          59.1038   90.5460   11.9077 C.3     1  UNL1        0.2542
     15 C          63.7437   87.8633   13.1768 C.ar    1  UNL1        0.0148
     16 C          64.7789   88.3756   14.1337 C.ar    1  UNL1       -0.0014
     17 C          65.3720   87.4562   15.1599 C.ar    1  UNL1        0.0029
     18 C          64.9298   86.0245   15.2291 C.ar    1  UNL1        0.0392
     19 C          63.8944   85.5123   14.2721 C.ar    1  UNL1        0.1657
     20 C          63.3014   86.4317   13.2460 C.ar    1  UNL1        0.1702
     21 F          62.2661   85.9194   12.2891 F       1  UNL1       -0.2013
     22 O          63.4522   84.0806   14.3413 O.3     1  UNL1       -0.4692
     23 C          62.4245   83.6610   15.3502 C.3     1  UNL1        0.2526
     24 C          63.5197   90.2366   12.1437 C.3     1  UNL1        0.1162
     25 O          63.6113   90.2062   10.6468 O.3     1  UNL1       -0.3820
     26 H          63.8560   91.0860   10.3199 H       1  UNL1        0.2107
     27 C          64.2206   91.2190   15.9244 C.ar    1  UNL1        0.2271
     28 C          64.3122   91.1885   14.4275 C.ar    1  UNL1        0.0559
     29 C          63.4281   90.2671   13.6406 C.ar    1  UNL1        0.0117
     30 C          62.4524   89.3761   14.3506 C.ar    1  UNL1        0.0559
     31 C          62.3608   89.4065   15.8474 C.ar    1  UNL1        0.2271
     32 N          63.2449   90.3280   16.6344 N.ar    1  UNL1       -0.1767
     33 O          65.1047   92.1405   16.7113 O.3     1  UNL1       -0.4602
     34 C          67.6326   92.3024   16.1337 C.3     1  UNL1        0.0512
     35 C          66.2397   92.8502   16.0345 C.3     1  UNL1        0.2072
     36 O          61.3850   88.5155   16.5574 O.3     1  UNL1       -0.4602
     37 C          61.7833   87.1205   16.9386 C.3     1  UNL1        0.2072
     38 C          62.7361   86.8966   18.0752 C.3     1  UNL1        0.0512
     39 C          63.8887   91.6905   12.1367 C.3     1  UNL1        0.0491
     40 C          64.6578   92.2635   10.9834 C.3     1  UNL1        0.0750
     41 N          66.0040   92.8836   11.2137 N.3     1  UNL1       -0.2702
     42 C          66.1806   93.9155   12.2880 C.3     1  UNL1        0.0897
     43 C          67.1737   92.4719   10.3699 C.3     1  UNL1        0.0897
@<TRIPOS>BOND
     1    34    35    1
     2    35    33    1
     3    33    27    1
     4    27    28   ar
     5    28    29   ar
     6    29    24    1
     7    24    25    1
     8    24    39    1
     9    39    40    1
    10    40    41    1
    11    41    42    1
    12    41    43    1
    13    24     1    1
    14     1     2    1
    15     2     3   ar
    16     3     4   ar
    17     4     5   ar
    18     5     6   ar
    19     6     7    1
    20     6     8   ar
    21     8     9   ar
    22     9    10   ar
    23    10    11   ar
    24    11    12   ar
    25    12    13    1
    26    13    14    1
    27     1    15    1
    28    15    16   ar
    29    16    17   ar
    30    17    18   ar
    31    18    19   ar
    32    19    22    1
    33    22    23    1
    34    19    20   ar
    35    20    21    1
    36    29    30   ar
    37    30    31   ar
    38    31    36    1
    39    36    37    1
    40    37    38    1
    41    31    32   ar
    42    32    27   ar
    43    12     2   ar
    44    20    15   ar
    45    10     4   ar
    46    25    26    1
@<TRIPOS>MOLECULE
*****
 43 46 0 0 0
SMALL
GASTEIGER

@<TRIPOS>ATOM
      1 C          63.1432   88.7917   12.1577 C.3     1  UNL1        0.0799
      2 C          62.1733   88.2668   11.1408 C.ar    1  UNL1        0.0374
      3 C          62.6330   87.2881   10.1012 C.ar    1  UNL1        0.0023
      4 C          61.6632   86.7633    9.0844 C.ar    1  UNL1        0.0181
      5 C          62.1229   85.7846    8.0447 C.ar    1  UNL1        0.0082
      6 C          61.1531   85.2597    7.0278 C.ar    1  UNL1        0.0347
      7 BR         61.6128   84.2811    5.9882 Br      1  UNL1       -0.0490
      8 C          59.7236   85.7135    7.0507 C.ar    1  UNL1        0.0082
      9 C          59.2639   86.6922    8.0903 C.ar    1  UNL1        0.0197
     10 C          60.2337   87.2171    9.1072 C.ar    1  UNL1        0.0844
     11 N          59.7740   88.1957   10.1468 N.ar    1  UNL1       -0.2119
     12 C          60.7438   88.7206   11.1637 C.ar    1  UNL1        0.2211
     13 O          60.2841   89.6992   12.2033 O.3     1  UNL1       -0.4563
     14 C          59.1290   90.6119   11.9155 C.3     1  UNL1        0.2542
     15 C          63.7276   87.8670   13.1840 C.ar    1  UNL1        0.0148
     16 C          64.7599   88.3724   14.1478 C.ar    1  UNL1       -0.0014
     17 C          65.3443   87.4477   15.1741 C.ar    1  UNL1        0.0029
     18 C          64.8964   86.0175   15.2367 C.ar    1  UNL1        0.0392
     19 C          63.8641   85.5120   14.2729 C.ar    1  UNL1        0.1657
     20 C          63.2797   86.4368   13.2466 C.ar    1  UNL1        0.1702
     21 F          62.2474   85.9313   12.2828 F       1  UNL1       -0.2013
     22 O          63.4162   84.0818   14.3354 O.3     1  UNL1       -0.4692
     23 C          62.3926   83.6601   15.3476 C.3     1  UNL1        0.2526
     24 C          63.5287   90.2413   12.1481 C.3     1  UNL1        0.1162
     25 O          63.6337   90.2035   10.6523 O.3     1  UNL1       -0.3820
     26 H          63.8914   91.0791   10.3241 H       1  UNL1        0.2107
     27 C          62.3288   89.4373   15.8446 C.ar    1  UNL1        0.2271
     28 C          62.4339   89.3995   14.3488 C.ar    1  UNL1        0.0559
     29 C          63.4236   90.2790   13.6440 C.ar    1  UNL1        0.0117
     30 C          64.3084   91.1963   14.4350 C.ar    1  UNL1        0.0559
     31 C          64.2034   91.2341   15.9309 C.ar    1  UNL1        0.2271
     32 N          63.2136   90.3546   16.6357 N.ar    1  UNL1       -0.1767
     33 O          61.3390   88.5578   16.5494 O.3     1  UNL1       -0.4602
     34 C          62.7774   86.9587   18.0068 C.3     1  UNL1        0.0512
     35 C          61.7275   87.1672   16.9559 C.3     1  UNL1        0.2072
     36 O          65.0882   92.1514   16.7219 O.3     1  UNL1       -0.4602
     37 C          66.2501   92.8294   16.0583 C.3     1  UNL1        0.2072
     38 C          67.5255   92.0750   15.8254 C.3     1  UNL1        0.0512
     39 C          63.9141   91.6909   12.1386 C.3     1  UNL1        0.0491
     40 C          64.5962   92.2777   10.9385 C.3     1  UNL1        0.0750
     41 N          65.7999   93.1553   11.1143 N.3     1  UNL1       -0.2702
     42 C          66.6578   93.4973    9.9324 C.3     1  UNL1        0.0897
     43 C          66.1458   93.6908   12.4720 C.3     1  UNL1        0.0897
@<TRIPOS>BOND
     1    34    35    1
     2    35    33    1
     3    33    27    1
     4    27    28   ar
     5    28    29   ar
     6    29    24    1
     7    24    25    1
     8    24    39    1
     9    39    40    1
    10    40    41    1
    11    41    42    1
    12    41    43    1
    13    24     1    1
    14     1     2    1
    15     2     3   ar
    16     3     4   ar
    17     4     5   ar
    18     5     6   ar
    19     6     7    1
    20     6     8   ar
    21     8     9   ar
    22     9    10   ar
    23    10    11   ar
    24    11    12   ar
    25    12    13    1
    26    13    14    1
    27     1    15    1
    28    15    16   ar
    29    16    17   ar
    30    17    18   ar
    31    18    19   ar
    32    19    22    1
    33    22    23    1
    34    19    20   ar
    35    20    21    1
    36    29    30   ar
    37    30    31   ar
    38    31    36    1
    39    36    37    1
    40    37    38    1
    41    31    32   ar
    42    32    27   ar
    43    12     2   ar
    44    20    15   ar
    45    10     4   ar
    46    25    26    1
@<TRIPOS>MOLECULE
*****
 43 46 0 0 0
SMALL
GASTEIGER

@<TRIPOS>ATOM
      1 C          62.0550   87.8325   10.8653 C.3     1  UNL1        0.0799
      2 C          62.6079   86.8924   11.8951 C.ar    1  UNL1        0.0374
      3 C          62.1924   85.4511   11.8949 C.ar    1  UNL1        0.0023
      4 C          62.7453   84.5110   12.9246 C.ar    1  UNL1        0.0181
      5 C          62.3298   83.0697   12.9244 C.ar    1  UNL1        0.0082
      6 C          62.8828   82.1295   13.9542 C.ar    1  UNL1        0.0347
      7 BR         62.4673   80.6882   13.9539 Br      1  UNL1       -0.0490
      8 C          63.8513   82.6307   14.9841 C.ar    1  UNL1        0.0082
      9 C          64.2668   84.0720   14.9844 C.ar    1  UNL1        0.0197
     10 C          63.7139   85.0121   13.9547 C.ar    1  UNL1        0.0844
     11 N          64.1294   86.4534   13.9549 N.ar    1  UNL1       -0.2119
     12 C          63.5764   87.3936   12.9251 C.ar    1  UNL1        0.2211
     13 O          63.9919   88.8348   12.9253 O.3     1  UNL1       -0.4563
     14 C          64.7393   89.3997   14.0969 C.3     1  UNL1        0.2542
     15 C          61.3514   87.2911    9.6563 C.ar    1  UNL1        0.0148
     16 C          59.9457   87.7174    9.3530 C.ar    1  UNL1       -0.0014
     17 C          59.2421   87.1759    8.1439 C.ar    1  UNL1        0.0029
     18 C          59.9443   86.2081    7.2382 C.ar    1  UNL1        0.0392
     19 C          61.3501   85.7818    7.5416 C.ar    1  UNL1        0.1657
     20 C          62.0537   86.3233    8.7506 C.ar    1  UNL1        0.1702
     21 F          63.4594   85.8970    9.0539 F       1  UNL1       -0.2013
     22 O          62.0523   84.8140    6.6359 O.3     1  UNL1       -0.4692
     23 C          61.2741   84.0525    5.6041 C.3     1  UNL1        0.2526
     24 C          62.2056   89.3141   11.0447 C.3     1  UNL1        0.1162
     25 O          63.1904   89.3509    9.9138 O.3     1  UNL1       -0.3820
     26 H          63.4945   90.2621    9.7794 H       1  UNL1        0.2107
     27 C          60.7158   89.3559   14.7228 C.ar    1  UNL1        0.2271
     28 C          61.7006   89.3926   13.5920 C.ar    1  UNL1        0.0559
     29 C          61.2207   89.2774   12.1755 C.ar    1  UNL1        0.0117
     30 C          59.7561   89.1254   11.8899 C.ar    1  UNL1        0.0559
     31 C          58.7713   89.0886   13.0207 C.ar    1  UNL1        0.2271
     32 N          59.2511   89.2039   14.4372 N.ar    1  UNL1       -0.1767
     33 O          61.1957   89.4711   16.1393 O.3     1  UNL1       -0.4602
     34 C          62.9757   87.8758   17.1574 C.3     1  UNL1        0.0512
     35 C          62.6253   89.1643   16.4741 C.3     1  UNL1        0.2072
     36 O          57.3065   88.9366   12.7350 O.3     1  UNL1       -0.4602
     37 C          56.5052   87.8958   13.4593 C.3     1  UNL1        0.2072
     38 C          55.0177   87.8333   13.2771 C.3     1  UNL1        0.0512
     39 C          62.3562   90.7958   11.2240 C.3     1  UNL1        0.0491
     40 C          63.3851   91.5464   10.4316 C.3     1  UNL1        0.0750
     41 N          64.5999   92.1009   11.1147 N.3     1  UNL1       -0.2702
     42 C          64.6990   92.0693   12.6111 C.3     1  UNL1        0.0897
     43 C          65.7157   92.6871   10.3015 C.3     1  UNL1        0.0897
@<TRIPOS>BOND
     1    34    35    1
     2    35    33    1
     3    33    27    1
     4    27    28   ar
     5    28    29   ar
     6    29    24    1
     7    24    25    1
     8    24    39    1
     9    39    40    1
    10    40    41    1
    11    41    42    1
    12    41    43    1
    13    24     1    1
    14     1     2    1
    15     2     3   ar
    16     3     4   ar
    17     4     5   ar
    18     5     6   ar
    19     6     7    1
    20     6     8   ar
    21     8     9   ar
    22     9    10   ar
    23    10    11   ar
    24    11    12   ar
    25    12    13    1
    26    13    14    1
    27     1    15    1
    28    15    16   ar
    29    16    17   ar
    30    17    18   ar
    31    18    19   ar
    32    19    22    1
    33    22    23    1
    34    19    20   ar
    35    20    21    1
    36    29    30   ar
    37    30    31   ar
    38    31    36    1
    39    36    37    1
    40    37    38    1
    41    31    32   ar
    42    32    27   ar
    43    12     2   ar
    44    20    15   ar
    45    10     4   ar
    46    25    26    1
