@<TRIPOS>MOLECULE
*****
 24 26 0 0 0
SMALL
GASTEIGER

@<TRIPOS>ATOM
      1 C          65.7768   92.6927   12.1777 C.2     1  UNL1        0.2397
      2 O          66.1064   93.5636   11.0018 O.2     1  UNL1       -0.2734
      3 N          64.6473   91.7096   12.0897 N.am    1  UNL1       -0.2784
      4 C          64.3176   90.8387   13.2657 C.3     1  UNL1        0.0951
      5 C          63.1881   89.8556   13.1777 C.3     1  UNL1        0.0410
      6 C          62.3882   89.7434   11.9137 C.3     1  UNL1        0.0722
      7 C          62.7179   90.6143   10.7377 C.3     1  UNL1        0.0410
      8 C          63.8474   91.5974   10.8258 C.3     1  UNL1        0.0951
      9 C          67.7649   91.9156   13.6587 C.3     1  UNL1        0.0267
     10 C          66.5766   92.8049   13.4417 C.3     1  UNL1        0.1286
     11 N          66.1882   93.8063   14.4887 N.3     1  UNL1       -0.3150
     12 H          66.8360   93.7457   15.2742 H       1  UNL1        0.1192
     13 H          65.2413   93.6094   14.8129 H       1  UNL1        0.1192
     14 N          61.2587   88.7603   11.8256 N.pl3   1  UNL1       -0.3369
     15 H          60.6325   88.6612   12.5788 H       1  UNL1        0.1465
     16 C          61.0833   87.9282   10.5899 C.2     1  UNL1        0.0262
     17 C          59.7866   87.9674    9.8371 C.2     1  UNL1        0.0118
     18 C          59.6112   87.1353    8.6014 C.2     1  UNL1        0.0216
     19 C          60.7327   86.2640    8.1186 C.2     1  UNL1        0.1008
     20 N          60.8515   85.3408    6.9423 N.2     1  UNL1       -0.1482
     21 N          62.2217   84.7310    6.9682 N.2     1  UNL1       -0.1467
     22 C          62.9498   85.2773    8.1605 C.2     1  UNL1        0.1198
     23 C          62.0295   86.2248    8.8715 C.2     1  UNL1        0.0238
     24 C          62.2048   87.0569   10.1071 C.3     1  UNL1        0.0703
@<TRIPOS>BOND
     1    10     9    1
     2    10    11    1
     3    10     1    1
     4     1     2    2
     5     1     3   am
     6     3     4    1
     7     4     5    1
     8     5     6    1
     9     6    14    1
    10    14    16    1
    11    16    17    2
    12    17    18    1
    13    18    19    2
    14    19    20    1
    15    20    21    2
    16    21    22    1
    17    22    23    2
    18    23    24    1
    19     6     7    1
    20     7     8    1
    21     8     3    1
    22    24    16    1
    23    23    19    1
    24    11    12    1
    25    11    13    1
    26    14    15    1
@<TRIPOS>MOLECULE
*****
 24 26 0 0 0
SMALL
GASTEIGER

@<TRIPOS>ATOM
      1 C          66.5790   92.6782   12.4787 C.2     1  UNL1        0.2397
      2 O          66.9955   93.4997   11.2948 O.2     1  UNL1       -0.2734
      3 N          65.3180   91.8679   12.4230 N.am    1  UNL1       -0.2784
      4 C          64.9016   91.0463   13.6070 C.3     1  UNL1        0.0951
      5 C          63.6405   90.2360   13.5513 C.3     1  UNL1        0.0410
      6 C          62.7959   90.2470   12.3117 C.3     1  UNL1        0.0722
      7 C          63.2124   91.0685   11.1278 C.3     1  UNL1        0.0410
      8 C          64.4735   91.8790   11.1835 C.3     1  UNL1        0.0951
      9 C          67.0341   93.5067   14.8988 C.3     1  UNL1        0.0267
     10 C          67.4236   92.6671   13.7184 C.3     1  UNL1        0.1286
     11 N          68.6575   91.8163   13.7776 N.3     1  UNL1       -0.3150
     12 H          69.1057   91.9302   14.6867 H       1  UNL1        0.1192
     13 H          69.3035   92.1026   13.0419 H       1  UNL1        0.1192
     14 N          61.5349   89.4367   12.2560 N.pl3   1  UNL1       -0.3369
     15 H          60.8462   89.5495   12.9504 H       1  UNL1        0.1465
     16 C          61.3233   88.4544   11.1422 C.2     1  UNL1        0.0262
     17 C          62.2044   87.2457   11.0306 C.2     1  UNL1        0.0118
     18 C          61.9928   86.2635    9.9168 C.2     1  UNL1        0.0216
     19 C          60.8999   86.4900    8.9147 C.2     1  UNL1        0.1008
     20 N          60.4559   85.7016    7.7184 N.2     1  UNL1       -0.1482
     21 N          59.3003   86.4230    7.0906 N.2     1  UNL1       -0.1467
     22 C          59.0301   87.6574    7.8990 C.2     1  UNL1        0.1198
     23 C          60.0187   87.6988    9.0263 C.2     1  UNL1        0.0238
     24 C          60.2304   88.6810   10.1401 C.3     1  UNL1        0.0703
@<TRIPOS>BOND
     1    10     9    1
     2    10    11    1
     3    10     1    1
     4     1     2    2
     5     1     3   am
     6     3     4    1
     7     4     5    1
     8     5     6    1
     9     6    14    1
    10    14    16    1
    11    16    17    2
    12    17    18    1
    13    18    19    2
    14    19    20    1
    15    20    21    2
    16    21    22    1
    17    22    23    2
    18    23    24    1
    19     6     7    1
    20     7     8    1
    21     8     3    1
    22    24    16    1
    23    23    19    1
    24    11    12    1
    25    11    13    1
    26    14    15    1
@<TRIPOS>MOLECULE
*****
 24 26 0 0 0
SMALL
GASTEIGER

@<TRIPOS>ATOM
      1 C          60.6162   86.9866    8.4270 C.2     1  UNL1        0.2397
      2 O          61.4326   85.8410    7.9062 O.2     1  UNL1       -0.2734
      3 N          61.0454   87.7099    9.6689 N.am    1  UNL1       -0.2784
      4 C          60.2290   88.8555   10.1897 C.3     1  UNL1        0.0951
      5 C          60.6582   89.5789   11.4316 C.3     1  UNL1        0.0410
      6 C          61.9039   89.1568   12.1529 C.3     1  UNL1        0.0722
      7 C          62.7203   88.0112   11.6322 C.3     1  UNL1        0.0410
      8 C          62.2910   87.2878   10.3901 C.3     1  UNL1        0.0951
      9 C          59.3037   88.7562    7.0501 C.3     1  UNL1        0.0267
     10 C          59.3705   87.4088    7.7058 C.3     1  UNL1        0.1286
     11 N          58.1917   86.4836    7.6403 N.3     1  UNL1       -0.3150
     12 H          57.4387   86.9289    7.1158 H       1  UNL1        0.1192
     13 H          57.8704   86.2748    8.5856 H       1  UNL1        0.1192
     14 N          62.3331   89.8801   13.3949 N.pl3   1  UNL1       -0.3369
     15 H          61.7998   89.8028   14.2188 H       1  UNL1        0.1465
     16 C          63.5751   90.7213   13.3815 C.2     1  UNL1        0.0262
     17 C          64.4363   90.8067   14.6065 C.2     1  UNL1        0.0118
     18 C          65.6783   91.6478   14.5931 C.2     1  UNL1        0.0216
     19 C          66.0589   92.4035   13.3545 C.2     1  UNL1        0.1008
     20 N          67.2159   93.3067   13.0457 N.2     1  UNL1       -0.1482
     21 N          67.0697   93.7795   11.6297 N.2     1  UNL1       -0.1467
     22 C          65.8223   93.1685   11.0634 C.2     1  UNL1        0.1198
     23 C          65.1976   92.3181   12.1294 C.2     1  UNL1        0.0238
     24 C          63.9557   91.4769   12.1429 C.3     1  UNL1        0.0703
@<TRIPOS>BOND
     1    10     9    1
     2    10    11    1
     3    10     1    1
     4     1     2    2
     5     1     3   am
     6     3     4    1
     7     4     5    1
     8     5     6    1
     9     6    14    1
    10    14    16    1
    11    16    17    2
    12    17    18    1
    13    18    19    2
    14    19    20    1
    15    20    21    2
    16    21    22    1
    17    22    23    2
    18    23    24    1
    19     6     7    1
    20     7     8    1
    21     8     3    1
    22    24    16    1
    23    23    19    1
    24    11    12    1
    25    11    13    1
    26    14    15    1
@<TRIPOS>MOLECULE
*****
 24 26 0 0 0
SMALL
GASTEIGER

@<TRIPOS>ATOM
      1 C          65.5946   92.6015   12.7849 C.2     1  UNL1        0.2397
      2 O          65.7873   93.7363   11.8232 O.2     1  UNL1       -0.2734
      3 N          64.6351   91.4959   12.4578 N.am    1  UNL1       -0.2784
      4 C          64.4424   90.3610   13.4196 C.3     1  UNL1        0.0951
      5 C          63.4830   89.2554   13.0925 C.3     1  UNL1        0.0410
      6 C          62.7161   89.2846   11.8036 C.3     1  UNL1        0.0722
      7 C          62.9089   90.4194   10.8419 C.3     1  UNL1        0.0410
      8 C          63.8684   91.5251   11.1690 C.3     1  UNL1        0.0951
      9 C          67.7538   92.0154   14.1057 C.3     1  UNL1        0.0267
     10 C          66.3614   92.5722   14.0738 C.3     1  UNL1        0.1286
     11 N          65.7357   93.0998   15.3309 N.3     1  UNL1       -0.3150
     12 H          66.3931   93.0025   16.1047 H       1  UNL1        0.1192
     13 H          64.8879   92.5713   15.5365 H       1  UNL1        0.1192
     14 N          61.7567   88.1790   11.4765 N.pl3   1  UNL1       -0.3369
     15 H          60.7866   88.3327   11.5450 H       1  UNL1        0.1465
     16 C          62.2752   86.8392   11.0449 C.2     1  UNL1        0.0262
     17 C          62.3792   86.5099    9.5853 C.2     1  UNL1        0.0118
     18 C          62.8977   85.1701    9.1537 C.2     1  UNL1        0.0216
     19 C          63.3123   84.1597   10.1819 C.2     1  UNL1        0.1008
     20 N          63.8567   82.7675   10.0584 N.2     1  UNL1       -0.1482
     21 N          64.0892   82.2364   11.4419 N.2     1  UNL1       -0.1467
     22 C          63.6885   83.3003   12.4203 C.2     1  UNL1        0.1198
     23 C          63.2083   84.4891   11.6416 C.2     1  UNL1        0.0238
     24 C          62.6897   85.8288   12.0731 C.3     1  UNL1        0.0703
@<TRIPOS>BOND
     1    10     9    1
     2    10    11    1
     3    10     1    1
     4     1     2    2
     5     1     3   am
     6     3     4    1
     7     4     5    1
     8     5     6    1
     9     6    14    1
    10    14    16    1
    11    16    17    2
    12    17    18    1
    13    18    19    2
    14    19    20    1
    15    20    21    2
    16    21    22    1
    17    22    23    2
    18    23    24    1
    19     6     7    1
    20     7     8    1
    21     8     3    1
    22    24    16    1
    23    23    19    1
    24    11    12    1
    25    11    13    1
    26    14    15    1
@<TRIPOS>MOLECULE
*****
 24 26 0 0 0
SMALL
GASTEIGER

@<TRIPOS>ATOM
      1 C          60.6957   87.1602    8.6071 C.2     1  UNL1        0.2397
      2 O          61.4925   85.9872    8.1183 O.2     1  UNL1       -0.2734
      3 N          61.1297   87.9016    9.8367 N.am    1  UNL1       -0.2784
      4 C          60.3328   89.0748   10.3255 C.3     1  UNL1        0.0951
      5 C          60.7667   89.8162   11.5551 C.3     1  UNL1        0.0410
      6 C          61.9975   89.3845   12.2960 C.3     1  UNL1        0.0722
      7 C          62.7943   88.2114   11.8073 C.3     1  UNL1        0.0410
      8 C          62.3604   87.4700   10.5775 C.3     1  UNL1        0.0951
      9 C          59.4365   88.9195    7.1685 C.3     1  UNL1        0.0267
     10 C          59.4649   87.5919    7.8663 C.3     1  UNL1        0.1286
     11 N          58.2626   86.6961    7.8231 N.3     1  UNL1       -0.3150
     12 H          57.5240   87.1443    7.2809 H       1  UNL1        0.1192
     13 H          57.9315   86.5255    8.7727 H       1  UNL1        0.1192
     14 N          62.4315   90.1259   13.5257 N.pl3   1  UNL1       -0.3369
     15 H          61.8873   90.0816   14.3449 H       1  UNL1        0.1465
     16 C          63.6946   90.9348   13.5070 C.2     1  UNL1        0.0262
     17 C          64.1949   91.5147   12.2174 C.2     1  UNL1        0.0118
     18 C          65.4580   92.3236   12.1987 C.2     1  UNL1        0.0216
     19 C          66.2208   92.5525   13.4699 C.2     1  UNL1        0.1008
     20 N          67.4878   93.3016   13.7590 N.2     1  UNL1       -0.1482
     21 N          67.7705   93.1846   15.2275 N.2     1  UNL1       -0.1467
     22 C          66.6782   92.3632   15.8459 C.2     1  UNL1        0.1198
     23 C          65.7204   91.9726   14.7596 C.2     1  UNL1        0.0238
     24 C          64.4573   91.1637   14.7781 C.3     1  UNL1        0.0703
@<TRIPOS>BOND
     1    10     9    1
     2    10    11    1
     3    10     1    1
     4     1     2    2
     5     1     3   am
     6     3     4    1
     7     4     5    1
     8     5     6    1
     9     6    14    1
    10    14    16    1
    11    16    17    2
    12    17    18    1
    13    18    19    2
    14    19    20    1
    15    20    21    2
    16    21    22    1
    17    22    23    2
    18    23    24    1
    19     6     7    1
    20     7     8    1
    21     8     3    1
    22    24    16    1
    23    23    19    1
    24    11    12    1
    25    11    13    1
    26    14    15    1
@<TRIPOS>MOLECULE
*****
 24 26 0 0 0
SMALL
GASTEIGER

@<TRIPOS>ATOM
      1 C          63.5499   82.4775   11.2181 C.2     1  UNL1        0.2397
      2 O          64.1618   81.7125   10.0822 O.2     1  UNL1       -0.2734
      3 N          63.0857   83.8884   11.0082 N.am    1  UNL1       -0.2784
      4 C          62.4738   84.6534   12.1442 C.3     1  UNL1        0.0951
      5 C          62.0096   86.0642   11.9343 C.3     1  UNL1        0.0410
      6 C          62.1572   86.7101   10.5885 C.3     1  UNL1        0.0722
      7 C          62.7691   85.9450    9.4526 C.3     1  UNL1        0.0410
      8 C          63.2333   84.5341    9.6625 C.3     1  UNL1        0.0951
      9 C          62.4588   80.6796   12.7435 C.3     1  UNL1        0.0267
     10 C          63.4023   81.8318   12.5639 C.3     1  UNL1        0.1286
     11 N          64.1982   82.3382   13.7302 N.3     1  UNL1       -0.3150
     12 H          63.9747   81.7875   14.5591 H       1  UNL1        0.1192
     13 H          63.9673   83.3171   13.8999 H       1  UNL1        0.1192
     14 N          61.6930   88.1209   10.3786 N.pl3   1  UNL1       -0.3369
     15 H          60.8518   88.2960    9.8981 H       1  UNL1        0.1465
     16 C          62.5106   89.2650   10.9008 C.2     1  UNL1        0.0262
     17 C          62.8085   90.4392   10.0164 C.2     1  UNL1        0.0118
     18 C          63.6262   91.5833   10.5386 C.2     1  UNL1        0.0216
     19 C          64.1458   91.5530   11.9454 C.2     1  UNL1        0.1008
     20 N          64.9722   92.5274   12.7313 N.2     1  UNL1       -0.1482
     21 N          65.1849   91.9553   14.1015 N.2     1  UNL1       -0.1467
     22 C          64.4901   90.6274   14.1624 C.2     1  UNL1        0.1198
     23 C          63.8479   90.3787   12.8299 C.2     1  UNL1        0.0238
     24 C          63.0303   89.2347   12.3076 C.3     1  UNL1        0.0703
@<TRIPOS>BOND
     1    10     9    1
     2    10    11    1
     3    10     1    1
     4     1     2    2
     5     1     3   am
     6     3     4    1
     7     4     5    1
     8     5     6    1
     9     6    14    1
    10    14    16    1
    11    16    17    2
    12    17    18    1
    13    18    19    2
    14    19    20    1
    15    20    21    2
    16    21    22    1
    17    22    23    2
    18    23    24    1
    19     6     7    1
    20     7     8    1
    21     8     3    1
    22    24    16    1
    23    23    19    1
    24    11    12    1
    25    11    13    1
    26    14    15    1
@<TRIPOS>MOLECULE
*****
 24 26 0 0 0
SMALL
GASTEIGER

@<TRIPOS>ATOM
      1 C          62.1549   86.1100   10.4750 C.2     1  UNL1        0.2397
      2 O          62.3832   84.8819   11.3053 O.2     1  UNL1       -0.2734
      3 N          62.5012   87.4620   11.0246 N.am    1  UNL1       -0.2784
      4 C          62.2728   88.6902   10.1942 C.3     1  UNL1        0.0951
      5 C          62.6192   90.0422   10.7438 C.3     1  UNL1        0.0410
      6 C          63.1940   90.1661   12.1238 C.3     1  UNL1        0.0722
      7 C          63.4223   88.9380   12.9541 C.3     1  UNL1        0.0410
      8 C          63.0760   87.5859   12.4045 C.3     1  UNL1        0.0951
      9 C          62.4244   85.4522    7.9760 C.3     1  UNL1        0.0267
     10 C          61.5801   85.9862    9.0950 C.3     1  UNL1        0.1286
     11 N          60.1611   86.3963    8.8339 N.3     1  UNL1       -0.3150
     12 H          59.9392   86.2458    7.8498 H       1  UNL1        0.1192
     13 H          60.0453   87.3839    9.0614 H       1  UNL1        0.1192
     14 N          63.5403   91.5181   12.6735 N.pl3   1  UNL1       -0.3369
     15 H          62.8384   92.1997   12.7827 H       1  UNL1        0.1465
     16 C          64.9563   91.8316   13.0567 C.2     1  UNL1        0.0262
     17 C          65.9753   92.1171   11.9937 C.2     1  UNL1        0.0118
     18 C          67.3913   92.4306   12.3770 C.2     1  UNL1        0.0216
     19 C          67.7882   92.4585   13.8232 C.2     1  UNL1        0.1008
     20 N          69.0985   92.7342   14.4993 N.2     1  UNL1       -0.1482
     21 N          68.8892   92.6190   15.9801 N.2     1  UNL1       -0.1467
     22 C          67.4496   92.2721   16.2193 C.2     1  UNL1        0.1198
     23 C          66.7691   92.1729   14.8862 C.2     1  UNL1        0.0238
     24 C          65.3532   91.8595   14.5029 C.3     1  UNL1        0.0703
@<TRIPOS>BOND
     1    10     9    1
     2    10    11    1
     3    10     1    1
     4     1     2    2
     5     1     3   am
     6     3     4    1
     7     4     5    1
     8     5     6    1
     9     6    14    1
    10    14    16    1
    11    16    17    2
    12    17    18    1
    13    18    19    2
    14    19    20    1
    15    20    21    2
    16    21    22    1
    17    22    23    2
    18    23    24    1
    19     6     7    1
    20     7     8    1
    21     8     3    1
    22    24    16    1
    23    23    19    1
    24    11    12    1
    25    11    13    1
    26    14    15    1
@<TRIPOS>MOLECULE
*****
 24 26 0 0 0
SMALL
GASTEIGER

@<TRIPOS>ATOM
      1 C          64.2152   83.7863   13.3402 C.2     1  UNL1        0.2397
      2 O          64.9490   83.2912   14.5511 O.2     1  UNL1       -0.2734
      3 N          63.8571   85.2381   13.2217 N.am    1  UNL1       -0.2784
      4 C          63.1232   85.7331   12.0107 C.3     1  UNL1        0.0951
      5 C          62.7651   87.1849   11.8923 C.3     1  UNL1        0.0410
      6 C          63.1407   88.1417   12.9848 C.3     1  UNL1        0.0722
      7 C          63.8745   87.6466   14.1957 C.3     1  UNL1        0.0410
      8 C          64.2327   86.1947   14.3142 C.3     1  UNL1        0.0951
      9 C          62.5315   82.0980   12.3083 C.3     1  UNL1        0.0267
     10 C          63.8396   82.8296   12.2477 C.3     1  UNL1        0.1286
     11 N          64.7720   82.6044   11.0945 N.3     1  UNL1       -0.3150
     12 H          64.3601   81.9285   10.4511 H       1  UNL1        0.1192
     13 H          65.6614   82.2453   11.4414 H       1  UNL1        0.1192
     14 N          62.7825   89.5935   12.8663 N.pl3   1  UNL1       -0.3369
     15 H          61.8380   89.8640   12.8042 H       1  UNL1        0.1465
     16 C          63.8636   90.6331   12.8426 C.2     1  UNL1        0.0262
     17 C          64.6920   90.8818   14.0681 C.2     1  UNL1        0.0118
     18 C          65.7731   91.9214   14.0443 C.2     1  UNL1        0.0216
     19 C          66.0257   92.7123   12.7950 C.2     1  UNL1        0.1008
     20 N          67.0140   93.7942   12.4748 N.2     1  UNL1       -0.1482
     21 N          66.7964   94.2142   11.0513 N.2     1  UNL1       -0.1467
     22 C          65.6736   93.3918   10.4918 C.2     1  UNL1        0.1198
     23 C          65.1973   92.4635   11.5696 C.2     1  UNL1        0.0238
     24 C          64.1162   91.4239   11.5933 C.3     1  UNL1        0.0703
@<TRIPOS>BOND
     1    10     9    1
     2    10    11    1
     3    10     1    1
     4     1     2    2
     5     1     3   am
     6     3     4    1
     7     4     5    1
     8     5     6    1
     9     6    14    1
    10    14    16    1
    11    16    17    2
    12    17    18    1
    13    18    19    2
    14    19    20    1
    15    20    21    2
    16    21    22    1
    17    22    23    2
    18    23    24    1
    19     6     7    1
    20     7     8    1
    21     8     3    1
    22    24    16    1
    23    23    19    1
    24    11    12    1
    25    11    13    1
    26    14    15    1
@<TRIPOS>MOLECULE
*****
 24 26 0 0 0
SMALL
GASTEIGER

@<TRIPOS>ATOM
      1 C          63.8425   83.7887   13.0650 C.2     1  UNL1        0.2397
      2 O          64.6139   83.4026   14.2921 O.2     1  UNL1       -0.2734
      3 N          63.4990   85.2276   12.8169 N.am    1  UNL1       -0.2784
      4 C          62.7276   85.6137   11.5897 C.3     1  UNL1        0.0951
      5 C          62.3841   87.0526   11.3416 C.3     1  UNL1        0.0410
      6 C          62.8120   88.1054   12.3207 C.3     1  UNL1        0.0722
      7 C          63.5834   87.7193   13.5478 C.3     1  UNL1        0.0410
      8 C          63.9269   86.2803   13.7959 C.3     1  UNL1        0.0951
      9 C          64.1565   82.5680   10.7931 C.3     1  UNL1        0.0267
     10 C          63.4146   82.7359   12.0859 C.3     1  UNL1        0.1286
     11 N          62.2448   81.8510   12.3996 N.3     1  UNL1       -0.3150
     12 H          62.0959   81.1986   11.6298 H       1  UNL1        0.1192
     13 H          61.4100   82.4232   12.5267 H       1  UNL1        0.1192
     14 N          62.4685   89.5443   12.0726 N.pl3   1  UNL1       -0.3369
     15 H          61.5336   89.8062   11.9095 H       1  UNL1        0.1465
     16 C          63.5496   90.5843   12.0731 C.2     1  UNL1        0.0262
     17 C          63.8778   91.3256   10.8112 C.2     1  UNL1        0.0118
     18 C          64.9588   92.3655   10.8117 C.2     1  UNL1        0.0216
     19 C          65.7116   92.6641   12.0743 C.2     1  UNL1        0.1008
     20 N          66.8200   93.6281   12.3778 N.2     1  UNL1       -0.1482
     21 N          67.1768   93.4825   13.8275 N.2     1  UNL1       -0.1467
     22 C          66.2889   92.4286   14.4199 C.2     1  UNL1        0.1198
     23 C          65.3834   91.9227   13.3363 C.2     1  UNL1        0.0238
     24 C          64.3024   90.8828   13.3357 C.3     1  UNL1        0.0703
@<TRIPOS>BOND
     1    10     9    1
     2    10    11    1
     3    10     1    1
     4     1     2    2
     5     1     3   am
     6     3     4    1
     7     4     5    1
     8     5     6    1
     9     6    14    1
    10    14    16    1
    11    16    17    2
    12    17    18    1
    13    18    19    2
    14    19    20    1
    15    20    21    2
    16    21    22    1
    17    22    23    2
    18    23    24    1
    19     6     7    1
    20     7     8    1
    21     8     3    1
    22    24    16    1
    23    23    19    1
    24    11    12    1
    25    11    13    1
    26    14    15    1
