@<TRIPOS>MOLECULE
*****
 27 30 0 0 0
SMALL
GASTEIGER

@<TRIPOS>ATOM
      1 C          65.1081   92.2534   12.3324 C.ar    1  UNL1        0.0689
      2 C          64.8197   92.4864   10.8790 C.ar    1  UNL1        0.0162
      3 C          63.8741   91.5805   10.1474 C.ar    1  UNL1        0.0033
      4 C          63.2170   90.4416   10.8692 C.ar    1  UNL1        0.0239
      5 C          63.5055   90.2086   12.3226 C.ar    1  UNL1        0.0033
      6 C          64.4511   91.1145   13.0542 C.ar    1  UNL1        0.0162
      7 C          62.2715   89.5357   10.1376 C.ar    1  UNL1        0.1107
      8 N          61.0846   89.9679    9.3286 N.ar    1  UNL1       -0.2383
      9 C          60.4263   88.7379    8.7776 C.ar    1  UNL1        0.0878
     10 C          59.2175   88.5496    7.9098 C.ar    1  UNL1        0.0196
     11 C          58.7886   87.1688    7.5104 C.ar    1  UNL1        0.0016
     12 C          59.5687   85.9763    7.9789 C.ar    1  UNL1        0.0006
     13 C          60.7776   86.1646    8.8467 C.ar    1  UNL1        0.0080
     14 C          61.2064   87.5454    9.2460 C.ar    1  UNL1        0.0485
     15 S          62.3467   88.0385   10.0866 S.2     1  UNL1       -0.0665
     16 N          66.0537   93.1593   13.0640 N.pl3   1  UNL1       -0.1883
     17 C          67.6934   92.0942   15.3393 C.3     1  UNL1        0.1999
     18 S          66.8735   92.6268   14.2017 S.O2    1  UNL1        0.0591
     19 O          67.9086   92.1436   13.2296 O.2     1  UNL1       -0.1542
     20 O          65.8384   93.1100   15.1738 O.2     1  UNL1       -0.1542
     21 C          66.1795   94.5978   12.6580 C.3     1  UNL1        0.1602
     22 C          66.5304   94.9497   11.2427 C.ar    1  UNL1        0.0763
     23 C          65.8786   96.0146   10.4114 C.ar    1  UNL1        0.1149
     24 N          66.5401   96.0216    9.0651 N.ar    1  UNL1       -0.2228
     25 C          67.6007   94.9609    9.0644 C.ar    1  UNL1        0.1748
     26 N          67.5948   94.2984   10.4102 N.ar    1  UNL1       -0.3368
     27 H          68.1857   93.5650   10.6968 H       1  UNL1        0.1672
@<TRIPOS>BOND
     1    17    18    1
     2    18    19    2
     3    18    20    2
     4    18    16    1
     5    16    21    1
     6    21    22    1
     7    22    23   ar
     8    23    24   ar
     9    24    25   ar
    10    25    26   ar
    11    16     1    1
    12     1     2   ar
    13     2     3   ar
    14     3     4   ar
    15     4     7    1
    16     7     8   ar
    17     8     9   ar
    18     9    10   ar
    19    10    11   ar
    20    11    12   ar
    21    12    13   ar
    22    13    14   ar
    23    14    15   ar
    24     4     5   ar
    25     5     6   ar
    26    26    22   ar
    27     6     1   ar
    28    15     7   ar
    29    14     9   ar
    30    26    27    1
@<TRIPOS>MOLECULE
*****
 27 30 0 0 0
SMALL
GASTEIGER

@<TRIPOS>ATOM
      1 C          64.1328   89.5436   13.4778 C.ar    1  UNL1        0.0689
      2 C          63.3635   88.9906   12.3150 C.ar    1  UNL1        0.0162
      3 C          63.0613   87.5230   12.2455 C.ar    1  UNL1        0.0033
      4 C          63.5284   86.6084   13.3388 C.ar    1  UNL1        0.0239
      5 C          64.2977   87.1615   14.5016 C.ar    1  UNL1        0.0033
      6 C          64.5999   88.6291   14.5711 C.ar    1  UNL1        0.0162
      7 C          63.2263   85.1408   13.2692 C.ar    1  UNL1        0.1107
      8 N          62.4920   84.3418   14.3047 N.ar    1  UNL1       -0.2383
      9 C          62.4172   82.9217   13.8275 C.ar    1  UNL1        0.0878
     10 C          61.8115   81.6900   14.4325 C.ar    1  UNL1        0.0196
     11 C          61.8939   80.3798   13.7070 C.ar    1  UNL1        0.0016
     12 C          62.5820   80.3012   12.3764 C.ar    1  UNL1        0.0006
     13 C          63.1877   81.5328   11.7714 C.ar    1  UNL1        0.0080
     14 C          63.1053   82.8431   12.4969 C.ar    1  UNL1        0.0485
     15 S          63.6053   84.2146   12.1519 S.2     1  UNL1       -0.0665
     16 N          64.4349   91.0112   13.5474 N.pl3   1  UNL1       -0.1883
     17 C          65.6106   92.1839   16.0460 C.3     1  UNL1        0.1999
     18 S          65.0227   91.5975   14.7966 S.O2    1  UNL1        0.0591
     19 O          63.6578   91.6449   15.4167 O.2     1  UNL1       -0.1542
     20 O          66.3877   91.5502   14.1766 O.2     1  UNL1       -0.1542
     21 C          64.1493   91.8925   12.3677 C.3     1  UNL1        0.1602
     22 C          65.2460   92.7215   11.7678 C.ar    1  UNL1        0.0763
     23 C          66.1288   92.3207   10.6232 C.ar    1  UNL1        0.1149
     24 N          67.0809   93.4484   10.3551 N.ar    1  UNL1       -0.2228
     25 C          66.7866   94.5461   11.3341 C.ar    1  UNL1        0.1748
     26 N          65.6526   94.0969   12.2072 N.ar    1  UNL1       -0.3368
     27 H          65.2465   94.6140   12.9400 H       1  UNL1        0.1672
@<TRIPOS>BOND
     1    17    18    1
     2    18    19    2
     3    18    20    2
     4    18    16    1
     5    16    21    1
     6    21    22    1
     7    22    23   ar
     8    23    24   ar
     9    24    25   ar
    10    25    26   ar
    11    16     1    1
    12     1     2   ar
    13     2     3   ar
    14     3     4   ar
    15     4     7    1
    16     7     8   ar
    17     8     9   ar
    18     9    10   ar
    19    10    11   ar
    20    11    12   ar
    21    12    13   ar
    22    13    14   ar
    23    14    15   ar
    24     4     5   ar
    25     5     6   ar
    26    26    22   ar
    27     6     1   ar
    28    15     7   ar
    29    14     9   ar
    30    26    27    1
@<TRIPOS>MOLECULE
*****
 27 30 0 0 0
SMALL
GASTEIGER

@<TRIPOS>ATOM
      1 C          64.6826   91.1645   13.4422 C.ar    1  UNL1        0.0689
      2 C          64.3644   89.7276   13.7317 C.ar    1  UNL1        0.0162
      3 C          63.5277   88.9362   12.7706 C.ar    1  UNL1        0.0033
      4 C          63.0093   89.5818   11.5199 C.ar    1  UNL1        0.0239
      5 C          63.3275   91.0188   11.2303 C.ar    1  UNL1        0.0033
      6 C          64.1641   91.8101   12.1915 C.ar    1  UNL1        0.0162
      7 C          62.1726   88.7905   10.5587 C.ar    1  UNL1        0.1107
      8 N          62.5209   87.4497    9.9835 N.ar    1  UNL1       -0.2383
      9 C          61.4043   87.0315    9.0733 C.ar    1  UNL1        0.0878
     10 C          61.1989   85.8050    8.2346 C.ar    1  UNL1        0.0196
     11 C          59.9552   85.6610    7.4086 C.ar    1  UNL1        0.0016
     12 C          58.9168   86.7434    7.4213 C.ar    1  UNL1        0.0006
     13 C          59.1222   87.9699    8.2600 C.ar    1  UNL1        0.0080
     14 C          60.3659   88.1140    9.0860 C.ar    1  UNL1        0.0485
     15 S          60.8408   89.2010   10.0041 S.2     1  UNL1       -0.0665
     16 N          65.5192   91.9558   14.4033 N.pl3   1  UNL1       -0.1883
     17 C          64.5988   92.3349   17.2334 C.3     1  UNL1        0.1999
     18 S          65.0591   92.1454   15.8183 S.O2    1  UNL1        0.0591
     19 O          63.6916   91.6597   15.4387 O.2     1  UNL1       -0.1542
     20 O          66.4265   92.6311   16.1979 O.2     1  UNL1       -0.1542
     21 C          66.8161   92.5576   13.9495 C.3     1  UNL1        0.1602
     22 C          66.9227   93.1666   12.5828 C.ar    1  UNL1        0.0763
     23 C          66.4043   94.5138   12.1750 C.ar    1  UNL1        0.1149
     24 N          66.7276   94.7152   10.7241 N.ar    1  UNL1       -0.2228
     25 C          67.4459   93.4924   10.2353 C.ar    1  UNL1        0.1748
     26 N          67.5665   92.5353   11.3840 N.ar    1  UNL1       -0.3368
     27 H          67.9932   91.6485   11.3560 H       1  UNL1        0.1672
@<TRIPOS>BOND
     1    17    18    1
     2    18    19    2
     3    18    20    2
     4    18    16    1
     5    16    21    1
     6    21    22    1
     7    22    23   ar
     8    23    24   ar
     9    24    25   ar
    10    25    26   ar
    11    16     1    1
    12     1     2   ar
    13     2     3   ar
    14     3     4   ar
    15     4     7    1
    16     7     8   ar
    17     8     9   ar
    18     9    10   ar
    19    10    11   ar
    20    11    12   ar
    21    12    13   ar
    22    13    14   ar
    23    14    15   ar
    24     4     5   ar
    25     5     6   ar
    26    26    22   ar
    27     6     1   ar
    28    15     7   ar
    29    14     9   ar
    30    26    27    1
@<TRIPOS>MOLECULE
*****
 27 30 0 0 0
SMALL
GASTEIGER

@<TRIPOS>ATOM
      1 C          64.2548   89.2751   13.6573 C.ar    1  UNL1        0.0689
      2 C          63.4857   88.7690   12.4731 C.ar    1  UNL1        0.0162
      3 C          63.1537   87.3104   12.3621 C.ar    1  UNL1        0.0033
      4 C          63.5908   86.3579   13.4353 C.ar    1  UNL1        0.0239
      5 C          64.3598   86.8640   14.6194 C.ar    1  UNL1        0.0033
      6 C          64.6919   88.3226   14.7304 C.ar    1  UNL1        0.0162
      7 C          63.2588   84.8993   13.3243 C.ar    1  UNL1        0.1107
      8 N          63.5936   84.0044   12.1680 N.ar    1  UNL1       -0.2383
      9 C          63.0754   82.6315   12.4791 C.ar    1  UNL1        0.0878
     10 C          63.1155   81.3452   11.7087 C.ar    1  UNL1        0.0196
     11 C          62.5004   80.1053   12.2869 C.ar    1  UNL1        0.0016
     12 C          61.8452   80.1518   13.6354 C.ar    1  UNL1        0.0006
     13 C          61.8052   81.4382   14.4058 C.ar    1  UNL1        0.0080
     14 C          62.4203   82.6780   13.8277 C.ar    1  UNL1        0.0485
     15 S          62.5336   84.0796   14.3500 S.2     1  UNL1       -0.0665
     16 N          64.5868   90.7337   13.7683 N.pl3   1  UNL1       -0.1883
     17 C          64.5348   92.4741   11.3253 C.3     1  UNL1        0.1999
     18 S          64.5608   91.6038   12.5468 S.O2    1  UNL1        0.0591
     19 O          66.0550   91.5144   12.4513 O.2     1  UNL1       -0.1542
     20 O          63.0665   91.6933   12.6423 O.2     1  UNL1       -0.1542
     21 C          64.9448   91.3221   15.1008 C.3     1  UNL1        0.1602
     22 C          66.3027   91.9222   15.3152 C.ar    1  UNL1        0.0763
     23 C          66.5928   93.2249   15.9998 C.ar    1  UNL1        0.1149
     24 N          68.0783   93.4328   15.9905 N.ar    1  UNL1       -0.2228
     25 C          68.7063   92.2586   15.3000 C.ar    1  UNL1        0.1748
     26 N          67.6090   91.3249   14.8827 N.ar    1  UNL1       -0.3368
     27 H          67.7256   90.4702   14.4082 H       1  UNL1        0.1672
@<TRIPOS>BOND
     1    17    18    1
     2    18    19    2
     3    18    20    2
     4    18    16    1
     5    16    21    1
     6    21    22    1
     7    22    23   ar
     8    23    24   ar
     9    24    25   ar
    10    25    26   ar
    11    16     1    1
    12     1     2   ar
    13     2     3   ar
    14     3     4   ar
    15     4     7    1
    16     7     8   ar
    17     8     9   ar
    18     9    10   ar
    19    10    11   ar
    20    11    12   ar
    21    12    13   ar
    22    13    14   ar
    23    14    15   ar
    24     4     5   ar
    25     5     6   ar
    26    26    22   ar
    27     6     1   ar
    28    15     7   ar
    29    14     9   ar
    30    26    27    1
@<TRIPOS>MOLECULE
*****
 27 30 0 0 0
SMALL
GASTEIGER

@<TRIPOS>ATOM
      1 C          61.9843   90.2713   11.4908 C.ar    1  UNL1        0.0689
      2 C          62.2439   89.9708   12.9372 C.ar    1  UNL1        0.0162
      3 C          63.4829   90.4941   13.6013 C.ar    1  UNL1        0.0033
      4 C          64.4624   91.3178   12.8189 C.ar    1  UNL1        0.0239
      5 C          64.2027   91.6182   11.3724 C.ar    1  UNL1        0.0033
      6 C          62.9637   91.0949   10.7084 C.ar    1  UNL1        0.0162
      7 C          65.7014   91.8410   13.4830 C.ar    1  UNL1        0.1107
      8 N          65.7465   92.7226   14.6957 N.ar    1  UNL1       -0.2383
      9 C          67.1859   93.0010   15.0131 C.ar    1  UNL1        0.0878
     10 C          67.8367   93.8089   16.0965 C.ar    1  UNL1        0.0196
     11 C          69.3319   93.9073   16.1633 C.ar    1  UNL1        0.0016
     12 C          70.1764   93.1977   15.1467 C.ar    1  UNL1        0.0006
     13 C          69.5256   92.3898   14.0634 C.ar    1  UNL1        0.0080
     14 C          68.0304   92.2914   13.9966 C.ar    1  UNL1        0.0485
     15 S          67.1129   91.5745   13.0509 S.2     1  UNL1       -0.0665
     16 N          60.7452   89.7480   10.8267 N.pl3   1  UNL1       -0.1883
     17 C          58.3819   88.9369   12.4871 C.3     1  UNL1        0.1999
     18 S          59.5636   89.3425   11.6569 S.O2    1  UNL1        0.0591
     19 O          60.0885   87.9387   11.7182 O.2     1  UNL1       -0.1542
     20 O          59.0387   90.7463   11.5956 O.2     1  UNL1       -0.1542
     21 C          60.6878   89.6303    9.3325 C.3     1  UNL1        0.1602
     22 C          60.3046   88.3267    8.6970 C.ar    1  UNL1        0.0763
     23 C          59.1437   88.1035    7.7737 C.ar    1  UNL1        0.1149
     24 N          59.1366   86.6563    7.3793 N.ar    1  UNL1       -0.2228
     25 C          60.2932   85.9850    8.0589 C.ar    1  UNL1        0.1748
     26 N          61.0151   87.0174    8.8733 N.ar    1  UNL1       -0.3368
     27 H          61.8147   86.8627    9.4264 H       1  UNL1        0.1672
@<TRIPOS>BOND
     1    17    18    1
     2    18    19    2
     3    18    20    2
     4    18    16    1
     5    16    21    1
     6    21    22    1
     7    22    23   ar
     8    23    24   ar
     9    24    25   ar
    10    25    26   ar
    11    16     1    1
    12     1     2   ar
    13     2     3   ar
    14     3     4   ar
    15     4     7    1
    16     7     8   ar
    17     8     9   ar
    18     9    10   ar
    19    10    11   ar
    20    11    12   ar
    21    12    13   ar
    22    13    14   ar
    23    14    15   ar
    24     4     5   ar
    25     5     6   ar
    26    26    22   ar
    27     6     1   ar
    28    15     7   ar
    29    14     9   ar
    30    26    27    1
@<TRIPOS>MOLECULE
*****
 27 30 0 0 0
SMALL
GASTEIGER

@<TRIPOS>ATOM
      1 C          61.8339   88.8071   10.5429 C.ar    1  UNL1        0.0689
      2 C          62.2675   88.2961   11.8848 C.ar    1  UNL1        0.0162
      3 C          63.2408   89.0854   12.7093 C.ar    1  UNL1        0.0033
      4 C          63.7805   90.3857   12.1918 C.ar    1  UNL1        0.0239
      5 C          63.3470   90.8967   10.8499 C.ar    1  UNL1        0.0033
      6 C          62.3737   90.1075   10.0255 C.ar    1  UNL1        0.0162
      7 C          64.7538   91.1750   13.0163 C.ar    1  UNL1        0.1107
      8 N          65.2135   92.5753   12.7373 N.ar    1  UNL1       -0.2383
      9 C          66.1821   92.9683   13.8131 C.ar    1  UNL1        0.0878
     10 C          66.9554   94.2305   14.0551 C.ar    1  UNL1        0.0196
     11 C          67.8678   94.3353   15.2410 C.ar    1  UNL1        0.0016
     12 C          68.0069   93.1779   16.1850 C.ar    1  UNL1        0.0006
     13 C          67.2335   91.9156   15.9429 C.ar    1  UNL1        0.0080
     14 C          66.3211   91.8108   14.7570 C.ar    1  UNL1        0.0485
     15 S          65.4384   90.7025   14.2646 S.2     1  UNL1       -0.0665
     16 N          60.8606   88.0179    9.7185 N.pl3   1  UNL1       -0.1883
     17 C          59.4254   89.3258    7.4316 C.3     1  UNL1        0.1999
     18 S          60.1430   88.6718    8.5751 S.O2    1  UNL1        0.0591
     19 O          59.7972   89.8346    9.4572 O.2     1  UNL1       -0.1542
     20 O          60.4889   87.5089    7.6930 O.2     1  UNL1       -0.1542
     21 C          60.6049   86.5747   10.0374 C.3     1  UNL1        0.1602
     22 C          61.7508   85.6101   10.1186 C.ar    1  UNL1        0.0763
     23 C          62.7077   85.2825    9.0109 C.ar    1  UNL1        0.1149
     24 N          63.6893   84.2737    9.5295 N.ar    1  UNL1       -0.2228
     25 C          63.3389   83.9777   10.9576 C.ar    1  UNL1        0.1748
     26 N          62.1409   84.8037   11.3218 N.ar    1  UNL1       -0.3368
     27 H          61.6898   84.8146   12.1968 H       1  UNL1        0.1672
@<TRIPOS>BOND
     1    17    18    1
     2    18    19    2
     3    18    20    2
     4    18    16    1
     5    16    21    1
     6    21    22    1
     7    22    23   ar
     8    23    24   ar
     9    24    25   ar
    10    25    26   ar
    11    16     1    1
    12     1     2   ar
    13     2     3   ar
    14     3     4   ar
    15     4     7    1
    16     7     8   ar
    17     8     9   ar
    18     9    10   ar
    19    10    11   ar
    20    11    12   ar
    21    12    13   ar
    22    13    14   ar
    23    14    15   ar
    24     4     5   ar
    25     5     6   ar
    26    26    22   ar
    27     6     1   ar
    28    15     7   ar
    29    14     9   ar
    30    26    27    1
