@<TRIPOS>MOLECULE
*****
 32 35 0 0 0
SMALL
GASTEIGER

@<TRIPOS>ATOM
      1 C          65.0941   91.7809   13.3173 C.ar    1  UNL1        0.1316
      2 N          64.3079   91.0712   12.2552 N.ar    1  UNL1       -0.1798
      3 C          63.2524   90.0776   12.6411 C.ar    1  UNL1        0.3218
      4 N          62.9833   89.7938   14.0892 N.ar    1  UNL1       -0.1829
      5 C          63.7696   90.5035   15.1514 C.ar    1  UNL1        0.1416
      6 CL         63.5004   90.2196   16.5995 Cl      1  UNL1       -0.0614
      7 C          64.8250   91.4970   14.7654 C.ar    1  UNL1        0.0382
      8 C          65.6112   92.2066   15.8275 C.3     1  UNL1        0.0365
      9 N          66.1495   92.7744   12.9314 N.pl3   1  UNL1       -0.3141
     10 H          66.2895   93.5812   13.4779 H       1  UNL1        0.1485
     11 C          66.9917   92.5387   11.7126 C.3     1  UNL1        0.1231
     12 C          65.9919   96.8522    8.8361 C.3     1  UNL1        0.0594
     13 C          66.5513   95.5346    9.2846 C.ar    1  UNL1        0.0880
     14 N          67.5292   94.6876    8.5254 N.ar    1  UNL1       -0.2473
     15 C          67.8132   93.4622    9.3425 C.ar    1  UNL1        0.0631
     16 C          68.7373   92.3435    8.9623 C.3     1  UNL1        0.0523
     17 C          67.0108   93.5519   10.6068 C.ar    1  UNL1        0.0416
     18 S          66.2309   94.8327   10.5709 S.2     1  UNL1       -0.0738
     19 O          62.4662   89.3680   11.5790 O.3     1  UNL1       -0.4467
     20 C          61.3742   90.0894   10.8461 C.3     1  UNL1        0.2091
     21 C          60.5006   89.3453    9.8802 C.3     1  UNL1        0.0537
     22 C          60.0645   87.9439   10.1895 C.3     1  UNL1        0.0496
     23 C          61.0592   86.8219   10.1457 C.ar    1  UNL1        0.0591
     24 C          61.6928   86.4318    8.8433 C.ar    1  UNL1        0.0147
     25 C          62.6875   85.3099    8.7995 C.ar    1  UNL1        0.0027
     26 C          63.0486   84.5781   10.0581 C.ar    1  UNL1        0.0177
     27 C          64.0433   83.4562   10.0143 C.ar    1  UNL1        0.0015
     28 C          64.4044   82.7245   11.2729 C.ar    1  UNL1        0.0001
     29 C          63.7708   83.1146   12.5753 C.ar    1  UNL1        0.0015
     30 C          62.7761   84.2365   12.6192 C.ar    1  UNL1        0.0191
     31 C          62.4150   84.9682   11.3606 C.ar    1  UNL1        0.0809
     32 N          61.4203   86.0902   11.4043 N.ar    1  UNL1       -0.2497
@<TRIPOS>BOND
     1    12    13    1
     2    13    14   ar
     3    14    15   ar
     4    15    16    1
     5    15    17   ar
     6    17    11    1
     7    11     9    1
     8     9     1    1
     9     1     2   ar
    10     2     3   ar
    11     3    19    1
    12    19    20    1
    13    20    21    1
    14    21    22    1
    15    22    23    1
    16    23    24   ar
    17    24    25   ar
    18    25    26   ar
    19    26    27   ar
    20    27    28   ar
    21    28    29   ar
    22    29    30   ar
    23    30    31   ar
    24    31    32   ar
    25     3     4   ar
    26     4     5   ar
    27     5     6    1
    28     5     7   ar
    29     7     8    1
    30    17    18   ar
    31    18    13   ar
    32     7     1   ar
    33    32    23   ar
    34    31    26   ar
    35     9    10    1
@<TRIPOS>MOLECULE
*****
 32 35 0 0 0
SMALL
GASTEIGER

@<TRIPOS>ATOM
      1 C          63.3851   90.5916   12.4951 C.ar    1  UNL1        0.1316
      2 N          63.0128   90.0723   13.8521 N.ar    1  UNL1       -0.1798
      3 C          63.7449   90.5582   15.0679 C.ar    1  UNL1        0.3218
      4 N          64.8493   91.5633   14.9265 N.ar    1  UNL1       -0.1829
      5 C          65.2216   92.0826   13.5694 C.ar    1  UNL1        0.1416
      6 CL         66.3259   93.0878   13.4280 Cl      1  UNL1       -0.0614
      7 C          64.4895   91.5968   12.3537 C.ar    1  UNL1        0.0382
      8 C          64.8618   92.1161   10.9966 C.3     1  UNL1        0.0365
      9 N          62.6530   90.1057   11.2794 N.pl3   1  UNL1       -0.3141
     10 H          63.0382   90.2455   10.3842 H       1  UNL1        0.1485
     11 C          61.3340   89.4068   11.4276 C.3     1  UNL1        0.1231
     12 C          59.1882   86.5725    7.5234 C.3     1  UNL1        0.0594
     13 C          59.9973   86.9630    8.7246 C.ar    1  UNL1        0.0880
     14 N          60.8914   86.0568    9.5180 N.ar    1  UNL1       -0.2473
     15 C          61.5010   86.8620   10.6271 C.ar    1  UNL1        0.0631
     16 C          62.4596   86.3527   11.6623 C.3     1  UNL1        0.0523
     17 C          60.9836   88.2658   10.5192 C.ar    1  UNL1        0.0416
     18 S          60.0543   88.3282    9.3434 S.2     1  UNL1       -0.0738
     19 O          63.3726   90.0389   16.4250 O.3     1  UNL1       -0.4467
     20 C          62.6361   88.7386   16.5543 C.3     1  UNL1        0.2091
     21 C          63.0950   87.7122   17.5473 C.3     1  UNL1        0.0537
     22 C          62.6264   86.2922   17.4291 C.3     1  UNL1        0.0496
     23 C          63.0602   85.4539   16.2632 C.ar    1  UNL1        0.0591
     24 C          64.2833   85.8320   15.4815 C.ar    1  UNL1        0.0147
     25 C          64.7171   84.9937   14.3157 C.ar    1  UNL1        0.0027
     26 C          63.9278   83.7773   13.9316 C.ar    1  UNL1        0.0177
     27 C          64.3616   82.9391   12.7658 C.ar    1  UNL1        0.0015
     28 C          63.5723   81.7228   12.3817 C.ar    1  UNL1        0.0001
     29 C          62.3492   81.3447   13.1635 C.ar    1  UNL1        0.0015
     30 C          61.9154   82.1829   14.3292 C.ar    1  UNL1        0.0191
     31 C          62.7047   83.3992   14.7133 C.ar    1  UNL1        0.0809
     32 N          62.2709   84.2376   15.8792 N.ar    1  UNL1       -0.2497
@<TRIPOS>BOND
     1    12    13    1
     2    13    14   ar
     3    14    15   ar
     4    15    16    1
     5    15    17   ar
     6    17    11    1
     7    11     9    1
     8     9     1    1
     9     1     2   ar
    10     2     3   ar
    11     3    19    1
    12    19    20    1
    13    20    21    1
    14    21    22    1
    15    22    23    1
    16    23    24   ar
    17    24    25   ar
    18    25    26   ar
    19    26    27   ar
    20    27    28   ar
    21    28    29   ar
    22    29    30   ar
    23    30    31   ar
    24    31    32   ar
    25     3     4   ar
    26     4     5   ar
    27     5     6    1
    28     5     7   ar
    29     7     8    1
    30    17    18   ar
    31    18    13   ar
    32     7     1   ar
    33    32    23   ar
    34    31    26   ar
    35     9    10    1
@<TRIPOS>MOLECULE
*****
 32 35 0 0 0
SMALL
GASTEIGER

@<TRIPOS>ATOM
      1 C          61.3561   87.0014   10.5258 C.ar    1  UNL1        0.1316
      2 N          61.9672   88.0585   11.3970 N.ar    1  UNL1       -0.1798
      3 C          61.8248   89.5063   11.0315 C.ar    1  UNL1        0.3218
      4 N          61.0713   89.8970    9.7947 N.ar    1  UNL1       -0.1829
      5 C          60.4601   88.8398    8.9235 C.ar    1  UNL1        0.1416
      6 CL         59.7065   89.2305    7.6868 Cl      1  UNL1       -0.0614
      7 C          60.6025   87.3920    9.2891 C.ar    1  UNL1        0.0382
      8 C          59.9914   86.3349    8.4179 C.3     1  UNL1        0.0365
      9 N          61.4985   85.5536   10.8913 N.pl3   1  UNL1       -0.3141
     10 H          60.9662   84.8724   10.4205 H       1  UNL1        0.1485
     11 C          62.4521   85.1438   11.9743 C.3     1  UNL1        0.1231
     12 C          62.9007   80.2923   14.0097 C.3     1  UNL1        0.0594
     13 C          63.0173   81.4681   13.0855 C.ar    1  UNL1        0.0880
     14 N          63.7099   81.4784   11.7549 N.ar    1  UNL1       -0.2473
     15 C          63.5824   82.8566   11.1767 C.ar    1  UNL1        0.0631
     16 C          64.1301   83.3132    9.8571 C.3     1  UNL1        0.0523
     17 C          62.8111   83.6981   12.1499 C.ar    1  UNL1        0.0416
     18 S          62.4619   82.8399   13.3296 S.2     1  UNL1       -0.0738
     19 O          62.4360   90.5634   11.9026 O.3     1  UNL1       -0.4467
     20 C          63.7755   91.1411   11.5534 C.3     1  UNL1        0.2091
     21 C          64.5006   92.0049   12.5422 C.3     1  UNL1        0.0537
     22 C          65.3067   91.3749   13.6392 C.3     1  UNL1        0.0496
     23 C          64.6601   90.4038   14.5821 C.ar    1  UNL1        0.0591
     24 C          63.9086   90.9075   15.7787 C.ar    1  UNL1        0.0147
     25 C          63.2620   89.9365   16.7215 C.ar    1  UNL1        0.0027
     26 C          63.3669   88.4618   16.4679 C.ar    1  UNL1        0.0177
     27 C          62.7203   87.4908   17.4108 C.ar    1  UNL1        0.0015
     28 C          62.8251   86.0161   17.1572 C.ar    1  UNL1        0.0001
     29 C          63.5766   85.5125   15.9607 C.ar    1  UNL1        0.0015
     30 C          64.2232   86.4834   15.0178 C.ar    1  UNL1        0.0191
     31 C          64.1183   87.9581   15.2714 C.ar    1  UNL1        0.0809
     32 N          64.7649   88.9292   14.3285 N.ar    1  UNL1       -0.2497
@<TRIPOS>BOND
     1    12    13    1
     2    13    14   ar
     3    14    15   ar
     4    15    16    1
     5    15    17   ar
     6    17    11    1
     7    11     9    1
     8     9     1    1
     9     1     2   ar
    10     2     3   ar
    11     3    19    1
    12    19    20    1
    13    20    21    1
    14    21    22    1
    15    22    23    1
    16    23    24   ar
    17    24    25   ar
    18    25    26   ar
    19    26    27   ar
    20    27    28   ar
    21    28    29   ar
    22    29    30   ar
    23    30    31   ar
    24    31    32   ar
    25     3     4   ar
    26     4     5   ar
    27     5     6    1
    28     5     7   ar
    29     7     8    1
    30    17    18   ar
    31    18    13   ar
    32     7     1   ar
    33    32    23   ar
    34    31    26   ar
    35     9    10    1
@<TRIPOS>MOLECULE
*****
 32 35 0 0 0
SMALL
GASTEIGER

@<TRIPOS>ATOM
      1 C          61.9828   87.3955   11.2701 C.ar    1  UNL1        0.1316
      2 N          62.8117   88.4619   11.9224 N.ar    1  UNL1       -0.1798
      3 C          62.7803   89.8651   11.3930 C.ar    1  UNL1        0.3218
      4 N          61.9199   90.2018   10.2114 N.ar    1  UNL1       -0.1829
      5 C          61.0909   89.1352    9.5591 C.ar    1  UNL1        0.1416
      6 CL         60.2305   89.4719    8.3774 Cl      1  UNL1       -0.0614
      7 C          61.1224   87.7321   10.0884 C.ar    1  UNL1        0.0382
      8 C          60.2935   86.6657    9.4361 C.3     1  UNL1        0.0365
      9 N          62.0143   85.9924   11.7995 N.pl3   1  UNL1       -0.3141
     10 H          61.2411   85.3980   11.6649 H       1  UNL1        0.1485
     11 C          63.2239   85.4949   12.5340 C.3     1  UNL1        0.1231
     12 C          62.5561   80.3825   13.6735 C.3     1  UNL1        0.0594
     13 C          62.8588   81.8458   13.8051 C.ar    1  UNL1        0.0880
     14 N          63.2939   82.5469   15.0579 N.ar    1  UNL1       -0.2473
     15 C          63.4836   83.9992   14.7341 C.ar    1  UNL1        0.0631
     16 C          63.9153   85.0675   15.6945 C.3     1  UNL1        0.0523
     17 C          63.1658   84.1957   13.2814 C.ar    1  UNL1        0.0416
     18 S          62.7797   82.8648   12.7073 S.2     1  UNL1       -0.0738
     19 O          63.6092   90.9316   12.0453 O.3     1  UNL1       -0.4467
     20 C          63.8905   90.8675   13.5173 C.3     1  UNL1        0.2091
     21 C          65.2951   91.0236   14.0199 C.3     1  UNL1        0.0537
     22 C          65.9823   92.3536   13.9246 C.3     1  UNL1        0.0496
     23 C          66.4003   92.8876   12.5867 C.ar    1  UNL1        0.0591
     24 C          67.0455   91.9774   11.5841 C.ar    1  UNL1        0.0147
     25 C          67.4635   92.5114   10.2461 C.ar    1  UNL1        0.0027
     26 C          67.2362   93.9557    9.9107 C.ar    1  UNL1        0.0177
     27 C          67.6542   94.4897    8.5728 C.ar    1  UNL1        0.0015
     28 C          67.4270   95.9340    8.2375 C.ar    1  UNL1        0.0001
     29 C          66.7818   96.8442    9.2401 C.ar    1  UNL1        0.0015
     30 C          66.3638   96.3102   10.5780 C.ar    1  UNL1        0.0191
     31 C          66.5910   94.8660   10.9133 C.ar    1  UNL1        0.0809
     32 N          66.1731   94.3319   12.2513 N.ar    1  UNL1       -0.2497
@<TRIPOS>BOND
     1    12    13    1
     2    13    14   ar
     3    14    15   ar
     4    15    16    1
     5    15    17   ar
     6    17    11    1
     7    11     9    1
     8     9     1    1
     9     1     2   ar
    10     2     3   ar
    11     3    19    1
    12    19    20    1
    13    20    21    1
    14    21    22    1
    15    22    23    1
    16    23    24   ar
    17    24    25   ar
    18    25    26   ar
    19    26    27   ar
    20    27    28   ar
    21    28    29   ar
    22    29    30   ar
    23    30    31   ar
    24    31    32   ar
    25     3     4   ar
    26     4     5   ar
    27     5     6    1
    28     5     7   ar
    29     7     8    1
    30    17    18   ar
    31    18    13   ar
    32     7     1   ar
    33    32    23   ar
    34    31    26   ar
    35     9    10    1
@<TRIPOS>MOLECULE
*****
 32 35 0 0 0
SMALL
GASTEIGER

@<TRIPOS>ATOM
      1 C          61.6718   88.4190   11.4058 C.ar    1  UNL1        0.1316
      2 N          62.1588   87.0063   11.5364 N.ar    1  UNL1       -0.1798
      3 C          61.7365   85.9719   10.5355 C.ar    1  UNL1        0.3218
      4 N          60.8271   86.3502    9.4042 N.ar    1  UNL1       -0.1829
      5 C          60.3401   87.7630    9.2737 C.ar    1  UNL1        0.1416
      6 CL         59.4308   88.1413    8.1423 Cl      1  UNL1       -0.0614
      7 C          60.7625   88.7973   10.2745 C.ar    1  UNL1        0.0382
      8 C          60.2754   90.2100   10.1440 C.3     1  UNL1        0.0365
      9 N          62.0941   89.4534   12.4067 N.pl3   1  UNL1       -0.3141
     10 H          61.4703   90.1686   12.6684 H       1  UNL1        0.1485
     11 C          63.4670   89.3980   13.0087 C.3     1  UNL1        0.1231
     12 C          66.6173   93.1870   14.9058 C.3     1  UNL1        0.0594
     13 C          65.7372   92.3895   13.9896 C.ar    1  UNL1        0.0880
     14 N          65.3713   92.7530   12.5810 N.ar    1  UNL1       -0.2473
     15 C          64.4763   91.6766   12.0421 C.ar    1  UNL1        0.0631
     16 C          63.8743   91.6361   10.6689 C.3     1  UNL1        0.0523
     17 C          64.2891   90.6479   13.1176 C.ar    1  UNL1        0.0416
     18 S          65.0683   91.0885   14.3212 S.2     1  UNL1       -0.0738
     19 O          62.2235   84.5592   10.6661 O.3     1  UNL1       -0.4467
     20 C          63.5065   84.1444   10.0089 C.3     1  UNL1        0.2091
     21 C          64.0359   82.7551   10.2074 C.3     1  UNL1        0.0537
     22 C          64.4901   82.3126   11.5668 C.3     1  UNL1        0.0496
     23 C          63.9458   82.9817   12.7940 C.ar    1  UNL1        0.0591
     24 C          62.8808   82.3065   13.6065 C.ar    1  UNL1        0.0147
     25 C          62.3365   82.9756   14.8337 C.ar    1  UNL1        0.0027
     26 C          62.8572   84.3198   15.2485 C.ar    1  UNL1        0.0177
     27 C          62.3128   84.9889   16.4757 C.ar    1  UNL1        0.0015
     28 C          62.8335   86.3330   16.8905 C.ar    1  UNL1        0.0001
     29 C          63.8984   87.0082   16.0780 C.ar    1  UNL1        0.0015
     30 C          64.4427   86.3392   14.8508 C.ar    1  UNL1        0.0191
     31 C          63.9221   84.9950   14.4361 C.ar    1  UNL1        0.0809
     32 N          64.4664   84.3259   13.2088 N.ar    1  UNL1       -0.2497
@<TRIPOS>BOND
     1    12    13    1
     2    13    14   ar
     3    14    15   ar
     4    15    16    1
     5    15    17   ar
     6    17    11    1
     7    11     9    1
     8     9     1    1
     9     1     2   ar
    10     2     3   ar
    11     3    19    1
    12    19    20    1
    13    20    21    1
    14    21    22    1
    15    22    23    1
    16    23    24   ar
    17    24    25   ar
    18    25    26   ar
    19    26    27   ar
    20    27    28   ar
    21    28    29   ar
    22    29    30   ar
    23    30    31   ar
    24    31    32   ar
    25     3     4   ar
    26     4     5   ar
    27     5     6    1
    28     5     7   ar
    29     7     8    1
    30    17    18   ar
    31    18    13   ar
    32     7     1   ar
    33    32    23   ar
    34    31    26   ar
    35     9    10    1
@<TRIPOS>MOLECULE
*****
 32 35 0 0 0
SMALL
GASTEIGER

@<TRIPOS>ATOM
      1 C          64.1582   88.0620   14.9048 C.ar    1  UNL1        0.1316
      2 N          64.6543   86.7538   14.3639 N.ar    1  UNL1       -0.1798
      3 C          64.4374   85.4898   15.1420 C.ar    1  UNL1        0.3218
      4 N          63.7244   85.5341   16.4609 N.ar    1  UNL1       -0.1829
      5 C          63.2282   86.8423   17.0018 C.ar    1  UNL1        0.1416
      6 CL         62.5152   86.8865   18.3207 Cl      1  UNL1       -0.0614
      7 C          63.4452   88.1062   16.2237 C.ar    1  UNL1        0.0382
      8 C          62.9491   89.4143   16.7646 C.3     1  UNL1        0.0365
      9 N          64.3752   89.3259   14.1267 N.pl3   1  UNL1       -0.3141
     10 H          64.1153   89.3707   13.1782 H       1  UNL1        0.1485
     11 C          64.9881   90.5215   14.7938 C.3     1  UNL1        0.1231
     12 C          65.7014   93.8766   10.7795 C.3     1  UNL1        0.0594
     13 C          65.8069   93.2145   12.1214 C.ar    1  UNL1        0.0880
     14 N          66.6619   93.6724   13.2657 N.ar    1  UNL1       -0.2473
     15 C          66.4593   92.7192   14.4060 C.ar    1  UNL1        0.0631
     16 C          67.1208   92.7990   15.7499 C.3     1  UNL1        0.0523
     17 C          65.4790   91.6724   13.9666 C.ar    1  UNL1        0.0416
     18 S          65.0758   91.9785   12.5546 S.2     1  UNL1       -0.0738
     19 O          64.9335   84.1817   14.6011 O.3     1  UNL1       -0.4467
     20 C          64.1104   83.4220   13.6034 C.3     1  UNL1        0.2091
     21 C          64.0109   83.9081   12.1879 C.3     1  UNL1        0.0537
     22 C          62.6720   83.9950   11.5171 C.3     1  UNL1        0.0496
     23 C          62.1909   85.3062   10.9699 C.ar    1  UNL1        0.0591
     24 C          62.6278   86.5911   11.6089 C.ar    1  UNL1        0.0147
     25 C          62.1467   87.9023   11.0618 C.ar    1  UNL1        0.0027
     26 C          61.2288   87.9286    9.8757 C.ar    1  UNL1        0.0177
     27 C          60.7477   89.2398    9.3286 C.ar    1  UNL1        0.0015
     28 C          59.8298   89.2661    8.1426 C.ar    1  UNL1        0.0001
     29 C          59.3929   87.9812    7.5037 C.ar    1  UNL1        0.0015
     30 C          59.8740   86.6700    8.0507 C.ar    1  UNL1        0.0191
     31 C          60.7919   86.6437    9.2368 C.ar    1  UNL1        0.0809
     32 N          61.2730   85.3325    9.7839 N.ar    1  UNL1       -0.2497
@<TRIPOS>BOND
     1    12    13    1
     2    13    14   ar
     3    14    15   ar
     4    15    16    1
     5    15    17   ar
     6    17    11    1
     7    11     9    1
     8     9     1    1
     9     1     2   ar
    10     2     3   ar
    11     3    19    1
    12    19    20    1
    13    20    21    1
    14    21    22    1
    15    22    23    1
    16    23    24   ar
    17    24    25   ar
    18    25    26   ar
    19    26    27   ar
    20    27    28   ar
    21    28    29   ar
    22    29    30   ar
    23    30    31   ar
    24    31    32   ar
    25     3     4   ar
    26     4     5   ar
    27     5     6    1
    28     5     7   ar
    29     7     8    1
    30    17    18   ar
    31    18    13   ar
    32     7     1   ar
    33    32    23   ar
    34    31    26   ar
    35     9    10    1
@<TRIPOS>MOLECULE
*****
 32 35 0 0 0
SMALL
GASTEIGER

@<TRIPOS>ATOM
      1 C          61.9766   85.7754   10.1983 C.ar    1  UNL1        0.1316
      2 N          61.3455   86.6376   11.2511 N.ar    1  UNL1       -0.1798
      3 C          60.2388   87.5812   10.8835 C.ar    1  UNL1        0.3218
      4 N          59.7634   87.6626    9.4631 N.ar    1  UNL1       -0.1829
      5 C          60.3945   86.8003    8.4104 C.ar    1  UNL1        0.1416
      6 CL         59.9190   86.8816    6.9901 Cl      1  UNL1       -0.0614
      7 C          61.5011   85.8567    8.7780 C.ar    1  UNL1        0.0382
      8 C          62.1322   84.9945    7.7253 C.3     1  UNL1        0.0365
      9 N          63.0831   84.8319   10.5660 N.pl3   1  UNL1       -0.3141
     10 H          63.9936   84.9837   10.2235 H       1  UNL1        0.1485
     11 C          62.8026   83.6570   11.4554 C.3     1  UNL1        0.1231
     12 C          64.0270   85.5700   16.2221 C.3     1  UNL1        0.0594
     13 C          63.5683   84.6520   15.1281 C.ar    1  UNL1        0.0880
     14 N          63.0671   83.2494   15.3063 N.ar    1  UNL1       -0.2473
     15 C          62.7193   82.7060   13.9521 C.ar    1  UNL1        0.0631
     16 C          62.1799   81.3363   13.6637 C.3     1  UNL1        0.0523
     17 C          63.0054   83.7727   12.9371 C.ar    1  UNL1        0.0416
     18 S          63.5301   84.9753   13.6639 S.2     1  UNL1       -0.0738
     19 O          59.6077   88.4435   11.9362 O.3     1  UNL1       -0.4467
     20 C          59.8992   89.9144   11.9748 C.3     1  UNL1        0.2091
     21 C          61.0696   90.4672   11.2168 C.3     1  UNL1        0.0537
     22 C          62.4474   89.9302   11.4683 C.3     1  UNL1        0.0496
     23 C          63.5365   90.8490   11.9371 C.ar    1  UNL1        0.0591
     24 C          64.1963   91.7853   10.9686 C.ar    1  UNL1        0.0147
     25 C          65.2854   92.7041   11.4374 C.ar    1  UNL1        0.0027
     26 C          65.7146   92.6866   12.8746 C.ar    1  UNL1        0.0177
     27 C          66.8037   93.6053   13.3433 C.ar    1  UNL1        0.0015
     28 C          67.2329   93.5878   14.7804 C.ar    1  UNL1        0.0001
     29 C          66.5731   92.6514   15.7489 C.ar    1  UNL1        0.0015
     30 C          65.4840   91.7326   15.2801 C.ar    1  UNL1        0.0191
     31 C          65.0548   91.7502   13.8430 C.ar    1  UNL1        0.0809
     32 N          63.9657   90.8314   13.3742 N.ar    1  UNL1       -0.2497
@<TRIPOS>BOND
     1    12    13    1
     2    13    14   ar
     3    14    15   ar
     4    15    16    1
     5    15    17   ar
     6    17    11    1
     7    11     9    1
     8     9     1    1
     9     1     2   ar
    10     2     3   ar
    11     3    19    1
    12    19    20    1
    13    20    21    1
    14    21    22    1
    15    22    23    1
    16    23    24   ar
    17    24    25   ar
    18    25    26   ar
    19    26    27   ar
    20    27    28   ar
    21    28    29   ar
    22    29    30   ar
    23    30    31   ar
    24    31    32   ar
    25     3     4   ar
    26     4     5   ar
    27     5     6    1
    28     5     7   ar
    29     7     8    1
    30    17    18   ar
    31    18    13   ar
    32     7     1   ar
    33    32    23   ar
    34    31    26   ar
    35     9    10    1
@<TRIPOS>MOLECULE
*****
 32 35 0 0 0
SMALL
GASTEIGER

@<TRIPOS>ATOM
      1 C          63.5390   90.3160   12.4110 C.ar    1  UNL1        0.1316
      2 N          64.0981   89.5971   13.6028 N.ar    1  UNL1       -0.1798
      3 C          63.9342   88.1113   13.7275 C.ar    1  UNL1        0.3218
      4 N          63.2111   87.3444   12.6602 N.ar    1  UNL1       -0.1829
      5 C          62.6519   88.0633   11.4684 C.ar    1  UNL1        0.1416
      6 CL         61.9288   87.2965   10.4011 Cl      1  UNL1       -0.0614
      7 C          62.8159   89.5491   11.3438 C.ar    1  UNL1        0.0382
      8 C          62.2567   90.2680   10.1519 C.3     1  UNL1        0.0365
      9 N          63.7029   91.8018   12.2864 N.pl3   1  UNL1       -0.3141
     10 H          62.9593   92.4009   12.5260 H       1  UNL1        0.1485
     11 C          64.9998   92.3748   11.7967 C.3     1  UNL1        0.1231
     12 C          68.1619   92.2954   16.0247 C.3     1  UNL1        0.0594
     13 C          67.6767   92.2723   14.6055 C.ar    1  UNL1        0.0880
     14 N          68.5350   92.1422   13.3822 N.ar    1  UNL1       -0.2473
     15 C          67.6367   92.1647   12.1812 C.ar    1  UNL1        0.0631
     16 C          68.0750   92.0613   10.7503 C.3     1  UNL1        0.0523
     17 C          66.2232   92.3088   12.6621 C.ar    1  UNL1        0.0416
     18 S          66.2479   92.3753   14.1604 S.2     1  UNL1       -0.0738
     19 O          64.4934   87.3924   14.9193 O.3     1  UNL1       -0.4467
     20 C          63.5980   87.0375   16.0692 C.3     1  UNL1        0.2091
     21 C          63.4436   85.6046   16.4850 C.3     1  UNL1        0.0537
     22 C          62.2703   84.8053   16.0006 C.3     1  UNL1        0.0496
     23 C          62.4353   83.8486   14.8571 C.ar    1  UNL1        0.0591
     24 C          61.9496   82.4352   14.9857 C.ar    1  UNL1        0.0147
     25 C          62.1146   81.4785   13.8423 C.ar    1  UNL1        0.0027
     26 C          62.7652   81.9351   12.5702 C.ar    1  UNL1        0.0177
     27 C          62.9302   80.9784   11.4268 C.ar    1  UNL1        0.0015
     28 C          63.5808   81.4350   10.1548 C.ar    1  UNL1        0.0001
     29 C          64.0665   82.8484   10.0261 C.ar    1  UNL1        0.0015
     30 C          63.9015   83.8051   11.1695 C.ar    1  UNL1        0.0191
     31 C          63.2509   83.3485   12.4416 C.ar    1  UNL1        0.0809
     32 N          63.0859   84.3052   13.5851 N.ar    1  UNL1       -0.2497
@<TRIPOS>BOND
     1    12    13    1
     2    13    14   ar
     3    14    15   ar
     4    15    16    1
     5    15    17   ar
     6    17    11    1
     7    11     9    1
     8     9     1    1
     9     1     2   ar
    10     2     3   ar
    11     3    19    1
    12    19    20    1
    13    20    21    1
    14    21    22    1
    15    22    23    1
    16    23    24   ar
    17    24    25   ar
    18    25    26   ar
    19    26    27   ar
    20    27    28   ar
    21    28    29   ar
    22    29    30   ar
    23    30    31   ar
    24    31    32   ar
    25     3     4   ar
    26     4     5   ar
    27     5     6    1
    28     5     7   ar
    29     7     8    1
    30    17    18   ar
    31    18    13   ar
    32     7     1   ar
    33    32    23   ar
    34    31    26   ar
    35     9    10    1
@<TRIPOS>MOLECULE
*****
 32 35 0 0 0
SMALL
GASTEIGER

@<TRIPOS>ATOM
      1 C          64.0018   90.9688   12.5269 C.ar    1  UNL1        0.1316
      2 N          64.4198   90.1987   13.7444 N.ar    1  UNL1       -0.1798
      3 C          64.0666   88.7464   13.8711 C.ar    1  UNL1        0.3218
      4 N          63.2955   88.0641   12.7802 N.ar    1  UNL1       -0.1829
      5 C          62.8775   88.8343   11.5627 C.ar    1  UNL1        0.1416
      6 CL         62.1064   88.1520   10.4719 Cl      1  UNL1       -0.0614
      7 C          63.2307   90.2866   11.4361 C.ar    1  UNL1        0.0382
      8 C          62.8127   91.0566   10.2186 C.3     1  UNL1        0.0365
      9 N          64.3550   92.4211   12.4003 N.pl3   1  UNL1       -0.3141
     10 H          63.6549   93.0817   12.1935 H       1  UNL1        0.1485
     11 C          65.7748   92.8669   12.5888 C.3     1  UNL1        0.1231
     12 C          69.0920   92.3692    8.5110 C.3     1  UNL1        0.0594
     13 C          68.1506   92.9558    9.5208 C.ar    1  UNL1        0.0880
     14 N          67.7206   94.3909    9.5960 N.ar    1  UNL1       -0.2473
     15 C          66.7782   94.5322   10.7544 C.ar    1  UNL1        0.0631
     16 C          66.1062   95.7989   11.1947 C.3     1  UNL1        0.0523
     17 C          66.6259   93.1846   11.3952 C.ar    1  UNL1        0.0416
     18 S          67.4741   92.2103   10.6328 S.2     1  UNL1       -0.0738
     19 O          64.4846   87.9763   15.0885 O.3     1  UNL1       -0.4467
     20 C          63.4524   87.2885   15.9320 C.3     1  UNL1        0.2091
     21 C          63.6827   85.8826   16.4011 C.3     1  UNL1        0.0537
     22 C          62.6155   84.8452   16.2140 C.3     1  UNL1        0.0496
     23 C          62.6628   83.9256   15.0298 C.ar    1  UNL1        0.0591
     24 C          61.8926   82.6386   15.0484 C.ar    1  UNL1        0.0147
     25 C          61.9399   81.7191   13.8642 C.ar    1  UNL1        0.0027
     26 C          62.7575   82.0866   12.6614 C.ar    1  UNL1        0.0177
     27 C          62.8048   81.1671   11.4773 C.ar    1  UNL1        0.0015
     28 C          63.6223   81.5346   10.2746 C.ar    1  UNL1        0.0001
     29 C          64.3925   82.8216   10.2560 C.ar    1  UNL1        0.0015
     30 C          64.3452   83.7412   11.4401 C.ar    1  UNL1        0.0191
     31 C          63.5277   83.3736   12.6428 C.ar    1  UNL1        0.0809
     32 N          63.4803   84.2932   13.8271 N.ar    1  UNL1       -0.2497
@<TRIPOS>BOND
     1    12    13    1
     2    13    14   ar
     3    14    15   ar
     4    15    16    1
     5    15    17   ar
     6    17    11    1
     7    11     9    1
     8     9     1    1
     9     1     2   ar
    10     2     3   ar
    11     3    19    1
    12    19    20    1
    13    20    21    1
    14    21    22    1
    15    22    23    1
    16    23    24   ar
    17    24    25   ar
    18    25    26   ar
    19    26    27   ar
    20    27    28   ar
    21    28    29   ar
    22    29    30   ar
    23    30    31   ar
    24    31    32   ar
    25     3     4   ar
    26     4     5   ar
    27     5     6    1
    28     5     7   ar
    29     7     8    1
    30    17    18   ar
    31    18    13   ar
    32     7     1   ar
    33    32    23   ar
    34    31    26   ar
    35     9    10    1
