@<TRIPOS>MOLECULE
*****
 30 34 0 0 0
SMALL
GASTEIGER

@<TRIPOS>ATOM
      1 C          62.6672   85.3034   12.3378 C.ar    1  UNL1        0.1667
      2 N          63.0833   86.6914   12.7256 N.ar    1  UNL1       -0.2221
      3 C          62.5595   87.6393   11.6877 C.ar    1  UNL1        0.1309
      4 C          62.6607   89.1292   11.5470 C.ar    1  UNL1        0.0810
      5 C          62.0220   89.8170   10.3768 C.ar    1  UNL1        0.0895
      6 CL         62.1231   91.3071   10.2360 Cl      1  UNL1       -0.0793
      7 C          61.2823   89.0149    9.3476 C.ar    1  UNL1        0.0863
      8 N          61.1811   87.5250    9.4884 N.ar    1  UNL1       -0.3354
      9 C          61.8198   86.8372   10.6585 C.ar    1  UNL1        0.1613
     10 N          61.8863   85.3935   11.0602 N.ar    1  UNL1       -0.2080
     11 H          60.6956   86.9986    8.8129 H       1  UNL1        0.1675
     12 C          64.2746   85.1176   15.1717 C.3     1  UNL1        0.0541
     13 C          63.7164   83.9607   14.3972 C.ar    1  UNL1        0.0834
     14 N          63.7990   82.5153   14.7894 N.ar    1  UNL1       -0.1735
     15 N          63.1112   81.7072   13.7291 N.ar    1  UNL1       -0.2476
     16 C          62.9580   80.2152   13.7182 C.3     1  UNL1        0.1538
     17 C          62.6035   82.6534   12.6816 C.ar    1  UNL1        0.0994
     18 C          62.9775   84.0461   13.0946 C.ar    1  UNL1        0.0698
     19 N          63.4005   89.9314   12.5762 N.pl3   1  UNL1       -0.3027
     20 C          64.2629   91.0829   12.1518 C.3     1  UNL1        0.1082
     21 C          65.0026   91.8851   13.1811 C.3     1  UNL1        0.0941
     22 N          64.8799   91.5357   14.6347 N.3     1  UNL1       -0.2632
     23 C          64.0174   90.3841   15.0590 C.3     1  UNL1        0.0941
     24 C          63.2777   89.5820   14.0297 C.3     1  UNL1        0.1082
     25 C          65.6196   92.3378   15.6639 C.3     1  UNL1        0.1425
     26 C          67.0649   92.6792   15.4522 C.ar    1  UNL1        0.1970
     27 N          67.8536   93.6938   16.2258 N.ar    1  UNL1       -0.1856
     28 C          69.2513   93.7076   15.6814 C.ar    1  UNL1        0.3161
     29 O          69.3263   92.7016   14.5714 O.2     1  UNL1       -0.3277
     30 N          67.9750   92.0660   14.4297 N.ar    1  UNL1       -0.0586
@<TRIPOS>BOND
     1    12    13    1
     2    13    14   ar
     3    14    15   ar
     4    15    16    1
     5    15    17   ar
     6    17    18   ar
     7    18     1    1
     8     1     2   ar
     9     2     3   ar
    10     3     4   ar
    11     4    19    1
    12    19    20    1
    13    20    21    1
    14    21    22    1
    15    22    25    1
    16    25    26    1
    17    26    27   ar
    18    27    28   ar
    19    28    29   ar
    20    29    30   ar
    21    22    23    1
    22    23    24    1
    23     4     5   ar
    24     5     6    1
    25     5     7   ar
    26     7     8   ar
    27     8     9   ar
    28     9    10   ar
    29    18    13   ar
    30    10     1   ar
    31     9     3    1
    32    24    19    1
    33    30    26   ar
    34     8    11    1
@<TRIPOS>MOLECULE
*****
 30 34 0 0 0
SMALL
GASTEIGER

@<TRIPOS>ATOM
      1 C          63.0308   84.7013   12.7759 C.ar    1  UNL1        0.1667
      2 N          62.4087   85.6732   11.8176 N.ar    1  UNL1       -0.2221
      3 C          62.8092   87.0569   12.2355 C.ar    1  UNL1        0.1309
      4 C          62.4944   88.4082   11.6654 C.ar    1  UNL1        0.0810
      5 C          63.0492   89.6428   12.3120 C.ar    1  UNL1        0.0895
      6 CL         62.7344   90.9941   11.7419 Cl      1  UNL1       -0.0793
      7 C          63.9187   89.5261   13.5286 C.ar    1  UNL1        0.0863
      8 N          64.2335   88.1749   14.0988 N.ar    1  UNL1       -0.3354
      9 C          63.6787   86.9403   13.4522 C.ar    1  UNL1        0.1613
     10 N          63.8157   85.4844   13.7862 N.ar    1  UNL1       -0.2080
     11 H          64.8042   88.0983   14.8973 H       1  UNL1        0.1675
     12 C          64.1251   82.7425   10.4063 C.3     1  UNL1        0.0541
     13 C          63.3953   82.3080   11.6426 C.ar    1  UNL1        0.0834
     14 N          63.0403   80.8969   12.0067 N.ar    1  UNL1       -0.1735
     15 N          62.3179   80.9250   13.3210 N.ar    1  UNL1       -0.2476
     16 C          61.7812   79.7338   14.0578 C.3     1  UNL1        0.1538
     17 C          62.2264   82.3536   13.7692 C.ar    1  UNL1        0.0994
     18 C          62.8922   83.2083   12.7318 C.ar    1  UNL1        0.0698
     19 N          61.6249   88.5249   10.4487 N.pl3   1  UNL1       -0.3027
     20 C          60.8046   89.7613   10.2289 C.3     1  UNL1        0.1082
     21 C          59.9351   89.8780    9.0122 C.3     1  UNL1        0.0941
     22 N          59.8859   88.7582    8.0154 N.3     1  UNL1       -0.2632
     23 C          60.7062   87.5218    8.2352 C.3     1  UNL1        0.0941
     24 C          61.5757   87.4051    9.4519 C.3     1  UNL1        0.1082
     25 C          59.0164   88.8749    6.7987 C.3     1  UNL1        0.1425
     26 C          59.1089   90.0903    5.9244 C.ar    1  UNL1        0.1970
     27 N          57.9570   90.9282    5.4545 N.ar    1  UNL1       -0.1856
     28 C          58.5058   92.0369    4.6063 C.ar    1  UNL1        0.3161
     29 O          59.9970   91.8842    4.5519 O.2     1  UNL1       -0.3277
     30 N          60.3698   90.6811    5.3665 N.ar    1  UNL1       -0.0586
@<TRIPOS>BOND
     1    12    13    1
     2    13    14   ar
     3    14    15   ar
     4    15    16    1
     5    15    17   ar
     6    17    18   ar
     7    18     1    1
     8     1     2   ar
     9     2     3   ar
    10     3     4   ar
    11     4    19    1
    12    19    20    1
    13    20    21    1
    14    21    22    1
    15    22    25    1
    16    25    26    1
    17    26    27   ar
    18    27    28   ar
    19    28    29   ar
    20    29    30   ar
    21    22    23    1
    22    23    24    1
    23     4     5   ar
    24     5     6    1
    25     5     7   ar
    26     7     8   ar
    27     8     9   ar
    28     9    10   ar
    29    18    13   ar
    30    10     1   ar
    31     9     3    1
    32    24    19    1
    33    30    26   ar
    34     8    11    1
@<TRIPOS>MOLECULE
*****
 30 34 0 0 0
SMALL
GASTEIGER

@<TRIPOS>ATOM
      1 C          63.7193   85.5286   14.1103 C.ar    1  UNL1        0.1667
      2 N          63.9459   86.9558   13.7079 N.ar    1  UNL1       -0.2221
      3 C          63.7116   87.8195   14.9117 C.ar    1  UNL1        0.1309
      4 C          63.7885   89.3040   15.1122 C.ar    1  UNL1        0.0810
      5 C          63.4940   89.8952   16.4590 C.ar    1  UNL1        0.0895
      6 CL         63.5709   91.3798   16.6595 Cl      1  UNL1       -0.0793
      7 C          63.1226   89.0019   17.6052 C.ar    1  UNL1        0.0863
      8 N          63.0457   87.5173   17.4048 N.ar    1  UNL1       -0.3354
      9 C          63.3402   86.9261   16.0580 C.ar    1  UNL1        0.1613
     10 N          63.3450   85.5103   15.5627 N.ar    1  UNL1       -0.2080
     11 H          62.8020   86.9310   18.1571 H       1  UNL1        0.1675
     12 C          63.8789   82.4183   15.0847 C.3     1  UNL1        0.0541
     13 C          63.9183   82.9005   13.6650 C.ar    1  UNL1        0.0834
     14 N          64.0380   82.0377   12.4438 N.ar    1  UNL1       -0.1735
     15 N          64.0386   82.9341   11.2411 N.ar    1  UNL1       -0.2476
     16 C          64.1406   82.4915    9.8116 C.3     1  UNL1        0.1538
     17 C          63.9193   84.3510   11.7190 C.ar    1  UNL1        0.0994
     18 C          63.8449   84.3302   13.2170 C.ar    1  UNL1        0.0698
     19 N          64.1599   90.1974   13.9659 N.pl3   1  UNL1       -0.3027
     20 C          63.2856   90.2584   12.7487 C.3     1  UNL1        0.1082
     21 C          63.6570   91.1518   11.6024 C.3     1  UNL1        0.0941
     22 N          64.9028   91.9843   11.6735 N.3     1  UNL1       -0.2632
     23 C          65.7772   91.9233   12.8908 C.3     1  UNL1        0.0941
     24 C          65.4057   91.0299   14.0370 C.3     1  UNL1        0.1082
     25 C          65.2743   92.8777   10.5273 C.3     1  UNL1        0.1425
     26 C          66.7129   93.0296   10.1305 C.ar    1  UNL1        0.1970
     27 N          67.6296   91.9241    9.6976 N.ar    1  UNL1       -0.1856
     28 C          68.9706   92.5250    9.3964 C.ar    1  UNL1        0.3161
     29 O          68.8826   94.0019    9.6431 O.2     1  UNL1       -0.3277
     30 N          67.4873   94.3138   10.0968 N.ar    1  UNL1       -0.0586
@<TRIPOS>BOND
     1    12    13    1
     2    13    14   ar
     3    14    15   ar
     4    15    16    1
     5    15    17   ar
     6    17    18   ar
     7    18     1    1
     8     1     2   ar
     9     2     3   ar
    10     3     4   ar
    11     4    19    1
    12    19    20    1
    13    20    21    1
    14    21    22    1
    15    22    25    1
    16    25    26    1
    17    26    27   ar
    18    27    28   ar
    19    28    29   ar
    20    29    30   ar
    21    22    23    1
    22    23    24    1
    23     4     5   ar
    24     5     6    1
    25     5     7   ar
    26     7     8   ar
    27     8     9   ar
    28     9    10   ar
    29    18    13   ar
    30    10     1   ar
    31     9     3    1
    32    24    19    1
    33    30    26   ar
    34     8    11    1
@<TRIPOS>MOLECULE
*****
 30 34 0 0 0
SMALL
GASTEIGER

@<TRIPOS>ATOM
      1 C          62.5186   85.3344   12.0409 C.ar    1  UNL1        0.1667
      2 N          62.9027   86.7833   11.9854 N.ar    1  UNL1       -0.2221
      3 C          62.0099   87.4617   10.9891 C.ar    1  UNL1        0.1309
      4 C          61.9283   88.8840   10.5197 C.ar    1  UNL1        0.0810
      5 C          60.9106   89.2766    9.4899 C.ar    1  UNL1        0.0895
      6 CL         60.8289   90.6990    9.0205 Cl      1  UNL1       -0.0793
      7 C          59.9747   88.2470    8.9297 C.ar    1  UNL1        0.0863
      8 N          60.0564   86.8247    9.3991 N.ar    1  UNL1       -0.3354
      9 C          61.0740   86.4321   10.4288 C.ar    1  UNL1        0.1613
     10 N          61.3884   85.1173   11.0789 N.ar    1  UNL1       -0.2080
     11 H          59.4421   86.1489    9.0314 H       1  UNL1        0.1675
     12 C          64.4441   85.8833   14.6178 C.3     1  UNL1        0.0541
     13 C          64.0383   84.5389   14.0909 C.ar    1  UNL1        0.0834
     14 N          64.4463   83.2106   14.6560 N.ar    1  UNL1       -0.1735
     15 N          63.8135   82.1373   13.8208 N.ar    1  UNL1       -0.2476
     16 C          63.9549   80.6589   14.0301 C.3     1  UNL1        0.1538
     17 C          63.0143   82.8023   12.7394 C.ar    1  UNL1        0.0994
     18 C          63.1533   84.2865   12.9064 C.ar    1  UNL1        0.0698
     19 N          62.8642   89.9137   11.0799 N.pl3   1  UNL1       -0.3027
     20 C          63.5096   90.9153   10.1688 C.3     1  UNL1        0.1082
     21 C          64.4455   91.9450   10.7291 C.3     1  UNL1        0.0941
     22 N          64.7359   91.9730   12.2005 N.3     1  UNL1       -0.2632
     23 C          64.0904   90.9713   13.1116 C.3     1  UNL1        0.0941
     24 C          63.1546   89.9417   12.5513 C.3     1  UNL1        0.1082
     25 C          65.6718   93.0026   12.7608 C.3     1  UNL1        0.1425
     26 C          66.2588   94.0506   11.8623 C.ar    1  UNL1        0.1970
     27 N          65.9121   95.5100   11.8659 N.ar    1  UNL1       -0.1856
     28 C          66.7346   96.1845   10.8083 C.ar    1  UNL1        0.3161
     29 O          67.5897   95.1419   10.1511 O.2     1  UNL1       -0.3277
     30 N          67.2956   93.8232   10.8025 N.ar    1  UNL1       -0.0586
@<TRIPOS>BOND
     1    12    13    1
     2    13    14   ar
     3    14    15   ar
     4    15    16    1
     5    15    17   ar
     6    17    18   ar
     7    18     1    1
     8     1     2   ar
     9     2     3   ar
    10     3     4   ar
    11     4    19    1
    12    19    20    1
    13    20    21    1
    14    21    22    1
    15    22    25    1
    16    25    26    1
    17    26    27   ar
    18    27    28   ar
    19    28    29   ar
    20    29    30   ar
    21    22    23    1
    22    23    24    1
    23     4     5   ar
    24     5     6    1
    25     5     7   ar
    26     7     8   ar
    27     8     9   ar
    28     9    10   ar
    29    18    13   ar
    30    10     1   ar
    31     9     3    1
    32    24    19    1
    33    30    26   ar
    34     8    11    1
@<TRIPOS>MOLECULE
*****
 30 34 0 0 0
SMALL
GASTEIGER

@<TRIPOS>ATOM
      1 C          62.0017   85.6165   11.0263 C.ar    1  UNL1        0.1667
      2 N          62.4935   86.5175   12.1201 N.ar    1  UNL1       -0.2221
      3 C          63.0083   85.6553   13.2344 C.ar    1  UNL1        0.1309
      4 C          63.6127   85.9905   14.5656 C.ar    1  UNL1        0.0810
      5 C          64.0436   84.8919   15.4917 C.ar    1  UNL1        0.0895
      6 CL         64.6481   85.2272   16.8230 Cl      1  UNL1       -0.0793
      7 C          63.8700   83.4582   15.0865 C.ar    1  UNL1        0.0863
      8 N          63.2655   83.1230   13.7553 N.ar    1  UNL1       -0.3354
      9 C          62.8347   84.2215   12.8292 C.ar    1  UNL1        0.1613
     10 N          62.2126   84.1975   11.4645 N.ar    1  UNL1       -0.2080
     11 H          63.1516   82.1819   13.4893 H       1  UNL1        0.1675
     12 C          63.0873   84.8238    8.0527 C.3     1  UNL1        0.0541
     13 C          61.9030   85.6928    8.3562 C.ar    1  UNL1        0.0834
     14 N          61.0097   86.3500    7.3462 N.ar    1  UNL1       -0.1735
     15 N          59.9586   87.1206    8.0887 N.ar    1  UNL1       -0.2476
     16 C          58.8572   87.9299    7.4709 C.3     1  UNL1        0.1538
     17 C          60.2022   86.9396    9.5578 C.ar    1  UNL1        0.0994
     18 C          61.4039   86.0572    9.7230 C.ar    1  UNL1        0.0698
     19 N          63.7864   87.4243   14.9709 N.pl3   1  UNL1       -0.3027
     20 C          64.5640   88.3621   14.0958 C.3     1  UNL1        0.1082
     21 C          64.7376   89.7958   14.5011 C.3     1  UNL1        0.0941
     22 N          64.1335   90.2917   15.7815 N.3     1  UNL1       -0.2632
     23 C          63.3559   89.3539   16.6565 C.3     1  UNL1        0.0941
     24 C          63.1823   87.9202   16.2512 C.3     1  UNL1        0.1082
     25 C          64.3071   91.7254   16.1868 C.3     1  UNL1        0.1425
     26 C          65.5230   92.4868   15.7485 C.ar    1  UNL1        0.1970
     27 N          66.7496   92.7402   16.5739 N.ar    1  UNL1       -0.1856
     28 C          67.7104   93.5384   15.7434 C.ar    1  UNL1        0.3161
     29 O          67.0775   93.7784   14.4048 O.2     1  UNL1       -0.3277
     30 N          65.7257   93.1285   14.4079 N.ar    1  UNL1       -0.0586
@<TRIPOS>BOND
     1    12    13    1
     2    13    14   ar
     3    14    15   ar
     4    15    16    1
     5    15    17   ar
     6    17    18   ar
     7    18     1    1
     8     1     2   ar
     9     2     3   ar
    10     3     4   ar
    11     4    19    1
    12    19    20    1
    13    20    21    1
    14    21    22    1
    15    22    25    1
    16    25    26    1
    17    26    27   ar
    18    27    28   ar
    19    28    29   ar
    20    29    30   ar
    21    22    23    1
    22    23    24    1
    23     4     5   ar
    24     5     6    1
    25     5     7   ar
    26     7     8   ar
    27     8     9   ar
    28     9    10   ar
    29    18    13   ar
    30    10     1   ar
    31     9     3    1
    32    24    19    1
    33    30    26   ar
    34     8    11    1
@<TRIPOS>MOLECULE
*****
 30 34 0 0 0
SMALL
GASTEIGER

@<TRIPOS>ATOM
      1 C          62.5622   85.2932   11.6756 C.ar    1  UNL1        0.1667
      2 N          62.9125   86.7515   11.6967 N.ar    1  UNL1       -0.2221
      3 C          61.9456   87.4734   10.8057 C.ar    1  UNL1        0.1309
      4 C          61.8058   88.9217   10.4412 C.ar    1  UNL1        0.0810
      5 C          60.7180   89.3578    9.5049 C.ar    1  UNL1        0.0895
      6 CL         60.5783   90.8062    9.1403 Cl      1  UNL1       -0.0793
      7 C          59.7701   88.3457    8.9332 C.ar    1  UNL1        0.0863
      8 N          59.9099   86.8974    9.2977 N.ar    1  UNL1       -0.3354
      9 C          60.9976   86.4613   10.2340 C.ar    1  UNL1        0.1613
     10 N          61.3787   85.1138   10.7716 N.ar    1  UNL1       -0.2080
     11 H          59.2877   86.2331    8.9225 H       1  UNL1        0.1675
     12 C          64.2235   82.8164   10.3510 C.3     1  UNL1        0.0541
     13 C          64.0345   83.0668   11.8177 C.ar    1  UNL1        0.0834
     14 N          64.5759   82.2226   12.9332 N.ar    1  UNL1       -0.1735
     15 N          64.1469   82.8393   14.2316 N.ar    1  UNL1       -0.2476
     16 C          64.4681   82.3216   15.6022 C.3     1  UNL1        0.1538
     17 C          63.3403   84.0647   13.9185 C.ar    1  UNL1        0.0994
     18 C          63.2709   84.2052   12.4267 C.ar    1  UNL1        0.0698
     19 N          62.7538   89.9340   11.0129 N.pl3   1  UNL1       -0.3027
     20 C          63.4063   90.9420   10.1140 C.3     1  UNL1        0.1082
     21 C          64.3543   91.9542   10.6857 C.3     1  UNL1        0.0941
     22 N          64.6496   91.9583   12.1564 N.3     1  UNL1       -0.2632
     23 C          63.9970   90.9503   13.0553 C.3     1  UNL1        0.0941
     24 C          63.0491   89.9381   12.4835 C.3     1  UNL1        0.1082
     25 C          65.5975   92.9705   12.7281 C.3     1  UNL1        0.1425
     26 C          66.3085   92.6874   14.0183 C.ar    1  UNL1        0.1970
     27 N          67.6685   92.0702   14.1585 N.ar    1  UNL1       -0.1856
     28 C          67.9848   91.9731   15.6216 C.ar    1  UNL1        0.3161
     29 O          66.8203   92.5302   16.3855 O.2     1  UNL1       -0.3277
     30 N          65.7843   92.9716   15.3947 N.ar    1  UNL1       -0.0586
@<TRIPOS>BOND
     1    12    13    1
     2    13    14   ar
     3    14    15   ar
     4    15    16    1
     5    15    17   ar
     6    17    18   ar
     7    18     1    1
     8     1     2   ar
     9     2     3   ar
    10     3     4   ar
    11     4    19    1
    12    19    20    1
    13    20    21    1
    14    21    22    1
    15    22    25    1
    16    25    26    1
    17    26    27   ar
    18    27    28   ar
    19    28    29   ar
    20    29    30   ar
    21    22    23    1
    22    23    24    1
    23     4     5   ar
    24     5     6    1
    25     5     7   ar
    26     7     8   ar
    27     8     9   ar
    28     9    10   ar
    29    18    13   ar
    30    10     1   ar
    31     9     3    1
    32    24    19    1
    33    30    26   ar
    34     8    11    1
@<TRIPOS>MOLECULE
*****
 30 34 0 0 0
SMALL
GASTEIGER

@<TRIPOS>ATOM
      1 C          72.5401   79.8883   10.2874 C.ar    1  UNL1        0.1667
      2 N          72.5246   78.4582   10.7395 N.ar    1  UNL1       -0.2221
      3 C          72.6799   78.4420   12.2314 C.ar    1  UNL1        0.1309
      4 C          72.7341   77.3176   13.2226 C.ar    1  UNL1        0.0810
      5 C          72.9000   77.6134   14.6839 C.ar    1  UNL1        0.0895
      6 CL         72.9542   76.4889   15.6752 Cl      1  UNL1       -0.0793
      7 C          73.0115   79.0334   15.1537 C.ar    1  UNL1        0.0863
      8 N          72.9573   80.1579   14.1624 N.ar    1  UNL1       -0.3354
      9 C          72.7914   79.8622   12.7012 C.ar    1  UNL1        0.1613
     10 N          72.7051   80.7561   11.4998 N.ar    1  UNL1       -0.2080
     11 H          73.0305   81.0899   14.4708 H       1  UNL1        0.1675
     12 C          72.0852   82.9779    9.3402 C.3     1  UNL1        0.0541
     13 C          72.2039   81.7870    8.4361 C.ar    1  UNL1        0.0834
     14 N          72.1344   81.8071    6.9379 N.ar    1  UNL1       -0.1735
     15 N          72.3006   80.3993    6.4472 N.ar    1  UNL1       -0.2476
     16 C          72.2955   79.9591    5.0133 C.3     1  UNL1        0.1538
     17 C          72.4728   79.5092    7.6423 C.ar    1  UNL1        0.0994
     18 C          72.4131   80.3668    8.8714 C.ar    1  UNL1        0.0698
     19 N          72.6226   75.8974   12.7528 N.pl3   1  UNL1       -0.3027
     20 C          71.5023   75.0303   13.2456 C.3     1  UNL1        0.1082
     21 C          71.3908   73.6101   12.7757 C.3     1  UNL1        0.0941
     22 N          72.3996   73.0572   11.8132 N.3     1  UNL1       -0.2632
     23 C          73.5199   73.9243   11.3204 C.3     1  UNL1        0.0941
     24 C          73.6314   75.3445   11.7903 C.3     1  UNL1        0.1082
     25 C          72.2881   71.6370   11.3433 C.3     1  UNL1        0.1425
     26 C          70.9805   70.9104   11.4552 C.ar    1  UNL1        0.1970
     27 N          70.5624   70.0167   12.5850 N.ar    1  UNL1       -0.1856
     28 C          69.1850   69.5040   12.2850 C.ar    1  UNL1        0.3161
     29 O          68.7520   70.0809   10.9699 O.2     1  UNL1       -0.3277
     30 N          69.8616   70.9501   10.4570 N.ar    1  UNL1       -0.0586
@<TRIPOS>BOND
     1    12    13    1
     2    13    14   ar
     3    14    15   ar
     4    15    16    1
     5    15    17   ar
     6    17    18   ar
     7    18     1    1
     8     1     2   ar
     9     2     3   ar
    10     3     4   ar
    11     4    19    1
    12    19    20    1
    13    20    21    1
    14    21    22    1
    15    22    25    1
    16    25    26    1
    17    26    27   ar
    18    27    28   ar
    19    28    29   ar
    20    29    30   ar
    21    22    23    1
    22    23    24    1
    23     4     5   ar
    24     5     6    1
    25     5     7   ar
    26     7     8   ar
    27     8     9   ar
    28     9    10   ar
    29    18    13   ar
    30    10     1   ar
    31     9     3    1
    32    24    19    1
    33    30    26   ar
    34     8    11    1
@<TRIPOS>MOLECULE
*****
 30 34 0 0 0
SMALL
GASTEIGER

@<TRIPOS>ATOM
      1 C          61.9113   93.1831    1.2711 C.ar    1  UNL1        0.1667
      2 N          61.1131   93.6670    0.0970 N.ar    1  UNL1       -0.2221
      3 C          62.0694   94.2230   -0.9161 C.ar    1  UNL1        0.1309
      4 C          61.8547   94.8389   -2.2668 C.ar    1  UNL1        0.0810
      5 C          63.0293   95.3145   -3.0695 C.ar    1  UNL1        0.0895
      6 CL         62.8145   95.9305   -4.4204 Cl      1  UNL1       -0.0793
      7 C          64.4184   95.1743   -2.5215 C.ar    1  UNL1        0.0863
      8 N          64.6331   94.5584   -1.1707 N.ar    1  UNL1       -0.3354
      9 C          63.4587   94.0828   -0.3680 C.ar    1  UNL1        0.1613
     10 N          63.3609   93.4401    0.9838 N.ar    1  UNL1       -0.2080
     11 H          65.5449   94.4664   -0.8110 H       1  UNL1        0.1675
     12 C          63.5000   91.1379    3.2567 C.3     1  UNL1        0.0541
     13 C          62.0875   91.6128    3.4271 C.ar    1  UNL1        0.0834
     14 N          61.1572   91.2310    4.5401 N.ar    1  UNL1       -0.1735
     15 N          59.8519   91.9351    4.3153 N.ar    1  UNL1       -0.2476
     16 C          58.6365   91.8391    5.1890 C.3     1  UNL1        0.1538
     17 C          59.9755   92.7521    3.0633 C.ar    1  UNL1        0.0994
     18 C          61.3572   92.5529    2.5144 C.ar    1  UNL1        0.0698
     19 N          60.4654   94.9792   -2.8150 N.pl3   1  UNL1       -0.3027
     20 C          59.8464   93.8519   -3.5869 C.3     1  UNL1        0.1082
     21 C          58.4572   93.9922   -4.1350 C.3     1  UNL1        0.0941
     22 N          57.6871   95.2599   -3.9112 N.3     1  UNL1       -0.2632
     23 C          58.3062   96.3872   -3.1393 C.3     1  UNL1        0.0941
     24 C          59.6954   96.2468   -2.5912 C.3     1  UNL1        0.1082
     25 C          56.2979   95.4002   -4.4593 C.3     1  UNL1        0.1425
     26 C          55.1325   95.5324   -3.5242 C.ar    1  UNL1        0.1970
     27 N          53.8361   96.2252   -3.8234 N.ar    1  UNL1       -0.1856
     28 C          52.9613   96.1159   -2.6098 C.ar    1  UNL1        0.3161
     29 O          53.7170   95.3557   -1.5606 O.2     1  UNL1       -0.3277
     30 N          55.0588   94.9950   -2.1257 N.ar    1  UNL1       -0.0586
@<TRIPOS>BOND
     1    12    13    1
     2    13    14   ar
     3    14    15   ar
     4    15    16    1
     5    15    17   ar
     6    17    18   ar
     7    18     1    1
     8     1     2   ar
     9     2     3   ar
    10     3     4   ar
    11     4    19    1
    12    19    20    1
    13    20    21    1
    14    21    22    1
    15    22    25    1
    16    25    26    1
    17    26    27   ar
    18    27    28   ar
    19    28    29   ar
    20    29    30   ar
    21    22    23    1
    22    23    24    1
    23     4     5   ar
    24     5     6    1
    25     5     7   ar
    26     7     8   ar
    27     8     9   ar
    28     9    10   ar
    29    18    13   ar
    30    10     1   ar
    31     9     3    1
    32    24    19    1
    33    30    26   ar
    34     8    11    1
@<TRIPOS>MOLECULE
*****
 30 34 0 0 0
SMALL
GASTEIGER

@<TRIPOS>ATOM
      1 C          62.0612   93.4422    1.4810 C.ar    1  UNL1        0.1667
      2 N          61.3709   93.8224    0.2047 N.ar    1  UNL1       -0.2221
      3 C          62.3569   94.5568   -0.6546 C.ar    1  UNL1        0.1309
      4 C          62.2391   95.1679   -2.0194 C.ar    1  UNL1        0.0810
      5 C          63.4212   95.8528   -2.6389 C.ar    1  UNL1        0.0895
      6 CL         63.3035   96.4639   -4.0038 Cl      1  UNL1       -0.0793
      7 C          64.7209   95.9264   -1.8938 C.ar    1  UNL1        0.0863
      8 N          64.8386   95.3153   -0.5290 N.ar    1  UNL1       -0.3354
      9 C          63.6566   94.6304    0.0906 C.ar    1  UNL1        0.1613
     10 N          63.4739   93.9416    1.4105 N.ar    1  UNL1       -0.2080
     11 H          65.6917   95.3636   -0.0400 H       1  UNL1        0.1675
     12 C          63.4917   91.0759    3.2141 C.3     1  UNL1        0.0541
     13 C          62.1043   91.6063    3.4233 C.ar    1  UNL1        0.0834
     14 N          61.1309   91.1421    4.4659 N.ar    1  UNL1       -0.1735
     15 N          59.8717   91.9429    4.3136 N.ar    1  UNL1       -0.2476
     16 C          58.6345   91.8083    5.1510 C.3     1  UNL1        0.1538
     17 C          60.0669   92.9021    3.1769 C.ar    1  UNL1        0.0994
     18 C          61.4468   92.6940    2.6267 C.ar    1  UNL1        0.0698
     19 N          60.9394   95.0943   -2.7646 N.pl3   1  UNL1       -0.3027
     20 C          60.7720   94.1113   -3.8851 C.3     1  UNL1        0.1082
     21 C          59.4723   94.0377   -4.6303 C.3     1  UNL1        0.0941
     22 N          58.3400   94.9472   -4.2550 N.3     1  UNL1       -0.2632
     23 C          58.5074   95.9302   -3.1344 C.3     1  UNL1        0.0941
     24 C          59.8072   96.0037   -2.3893 C.3     1  UNL1        0.1082
     25 C          57.0403   94.8736   -5.0001 C.3     1  UNL1        0.1425
     26 C          56.4932   93.5428   -5.4242 C.ar    1  UNL1        0.1970
     27 N          56.1169   93.1490   -6.8218 N.ar    1  UNL1       -0.1856
     28 C          55.6175   91.7351   -6.7865 C.ar    1  UNL1        0.3161
     29 O          55.6850   91.2550   -5.3670 O.2     1  UNL1       -0.3277
     30 N          56.2262   92.3722   -4.5251 N.ar    1  UNL1       -0.0586
@<TRIPOS>BOND
     1    12    13    1
     2    13    14   ar
     3    14    15   ar
     4    15    16    1
     5    15    17   ar
     6    17    18   ar
     7    18     1    1
     8     1     2   ar
     9     2     3   ar
    10     3     4   ar
    11     4    19    1
    12    19    20    1
    13    20    21    1
    14    21    22    1
    15    22    25    1
    16    25    26    1
    17    26    27   ar
    18    27    28   ar
    19    28    29   ar
    20    29    30   ar
    21    22    23    1
    22    23    24    1
    23     4     5   ar
    24     5     6    1
    25     5     7   ar
    26     7     8   ar
    27     8     9   ar
    28     9    10   ar
    29    18    13   ar
    30    10     1   ar
    31     9     3    1
    32    24    19    1
    33    30    26   ar
    34     8    11    1
