@<TRIPOS>MOLECULE
*****
 39 45 0 0 0
SMALL
GASTEIGER

@<TRIPOS>ATOM
      1 C          61.7981   92.6538    1.4561 C.2     1  UNL1       -0.0378
      2 C          62.6866   91.8453    2.3544 C.2     1  UNL1       -0.0080
      3 C          62.1472   91.2876    3.6382 C.2     1  UNL1        0.0022
      4 C          60.7195   91.5384    4.0237 C.2     1  UNL1        0.0350
      5 C          59.9139   91.1200    5.2178 C.2     1  UNL1        0.1040
      6 N          58.5276   91.6699    5.0576 N.2     1  UNL1       -0.1483
      7 N          58.4763   92.4281    3.7643 N.2     1  UNL1       -0.1520
      8 C          59.8310   92.3468    3.1253 C.2     1  UNL1        0.0860
      9 C          60.3703   92.9045    1.8416 C.3     1  UNL1        0.0697
     10 C          64.4560   95.4348   -4.2020 C.ar    1  UNL1        0.1385
     11 C          65.3750   96.5141   -3.7114 C.ar    1  UNL1        0.0382
     12 C          65.5262   96.7585   -2.2392 C.ar    1  UNL1        0.0177
     13 C          64.7584   95.9238   -1.2576 C.ar    1  UNL1        0.0505
     14 C          63.8394   94.8445   -1.7481 C.ar    1  UNL1        0.0024
     15 C          63.6882   94.6000   -3.2203 C.ar    1  UNL1        0.0343
     16 C          63.2168   94.1869   -0.5523 C.3     1  UNL1        0.0931
     17 C          62.3919   93.2021   -1.3266 C.3     1  UNL1        0.0179
     18 C          62.3373   93.2115    0.1723 C.3     1  UNL1        0.0315
     19 C          63.7511   94.8598    0.6773 C.2     1  UNL1        0.2326
     20 O          63.3951   94.5190    2.0940 O.2     1  UNL1       -0.2742
     21 N          64.7038   95.9332    0.2414 N.am    1  UNL1       -0.2569
     22 C          65.4678   96.8543    1.1457 C.3     1  UNL1        0.1200
     23 C          63.8381   93.8531   -6.1683 C.3     1  UNL1        0.2525
     24 O          64.3048   95.1903   -5.6741 O.3     1  UNL1       -0.4714
     25 C          60.4080   90.2963    6.3700 C.2     1  UNL1        0.0209
     26 C          59.5382   89.2210    6.9507 C.2     1  UNL1        0.0016
     27 C          60.0322   88.3973    8.1029 C.ar    1  UNL1        0.0000
     28 C          60.5079   89.0701    9.3563 C.ar    1  UNL1       -0.0003
     29 C          61.0019   88.2465   10.5085 C.ar    1  UNL1       -0.0029
     30 C          61.0202   86.7501   10.4072 C.ar    1  UNL1       -0.0061
     31 C          60.5446   86.0773    9.1538 C.ar    1  UNL1       -0.0029
     32 C          60.0505   86.9009    8.0016 C.ar    1  UNL1       -0.0003
     33 C          61.5142   85.9265   11.5595 C.3     1  UNL1        0.0993
     34 N          62.5594   84.8742   11.3356 N.3     1  UNL1       -0.2646
     35 C          63.1072   84.1017   12.4989 C.3     1  UNL1        0.1049
     36 C          64.1524   83.0494   12.2751 C.3     1  UNL1        0.1595
     37 O          64.6500   82.7696   10.8879 O.3     1  UNL1       -0.3508
     38 C          64.1023   83.5421    9.7247 C.3     1  UNL1        0.1595
     39 C          63.0570   84.5944    9.9485 C.3     1  UNL1        0.1049
@<TRIPOS>BOND
     1    23    24    1
     2    24    10    1
     3    10    11   ar
     4    11    12   ar
     5    12    13   ar
     6    13    14   ar
     7    14    15   ar
     8    14    16    1
     9    16    17    1
    10    17    18    1
    11    18     1    1
    12     1     2    2
    13     2     3    1
    14     3     4    2
    15     4     5    1
    16     5    25    1
    17    25    26    2
    18    26    27    1
    19    27    28   ar
    20    28    29   ar
    21    29    30   ar
    22    30    33    1
    23    33    34    1
    24    34    35    1
    25    35    36    1
    26    36    37    1
    27    37    38    1
    28    38    39    1
    29    30    31   ar
    30    31    32   ar
    31     5     6    2
    32     6     7    1
    33     7     8    2
    34     8     9    1
    35    16    19    1
    36    19    20    2
    37    19    21   am
    38    21    22    1
    39    15    10   ar
    40    18    16    1
    41     9     1    1
    42    21    13    1
    43     8     4    1
    44    32    27   ar
    45    39    34    1
@<TRIPOS>MOLECULE
*****
 39 45 0 0 0
SMALL
GASTEIGER

@<TRIPOS>ATOM
      1 C          61.3414   92.6468    2.3107 C.2     1  UNL1       -0.0378
      2 C          62.1786   91.6412    3.0441 C.2     1  UNL1       -0.0080
      3 C          61.5991   90.8850    4.2028 C.2     1  UNL1        0.0022
      4 C          60.1825   91.1345    4.6281 C.2     1  UNL1        0.0350
      5 C          59.3452   90.5455    5.7244 C.2     1  UNL1        0.1040
      6 N          57.9904   91.1870    5.6686 N.2     1  UNL1       -0.1483
      7 N          57.9905   92.1725    4.5378 N.2     1  UNL1       -0.1520
      8 C          59.3453   92.1400    3.8947 C.2     1  UNL1        0.0860
      9 C          59.9247   92.8962    2.7360 C.3     1  UNL1        0.0697
     10 C          63.7054   95.9749   -3.1799 C.ar    1  UNL1        0.1385
     11 C          62.7258   95.6683   -4.2736 C.ar    1  UNL1        0.0382
     12 C          61.5426   94.7890   -3.9959 C.ar    1  UNL1        0.0177
     13 C          61.3392   94.2165   -2.6245 C.ar    1  UNL1        0.0505
     14 C          62.3188   94.5231   -1.5308 C.ar    1  UNL1        0.0024
     15 C          63.5020   95.4023   -1.8084 C.ar    1  UNL1        0.0343
     16 C          61.8602   93.8206   -0.2873 C.3     1  UNL1        0.0931
     17 C          62.9849   94.2948    0.5845 C.3     1  UNL1        0.0179
     18 C          61.9208   93.4029    1.1521 C.3     1  UNL1        0.0315
     19 C          60.5970   93.0799   -0.6125 C.2     1  UNL1        0.2326
     20 O          59.7965   92.2417    0.3395 O.2     1  UNL1       -0.2742
     21 N          60.2750   93.3245   -2.0570 N.am    1  UNL1       -0.2569
     22 C          59.0959   92.7738   -2.8030 C.3     1  UNL1        0.1200
     23 C          66.0865   96.8064   -2.5560 C.3     1  UNL1        0.2525
     24 O          64.8886   96.8541   -3.4575 O.3     1  UNL1       -0.4714
     25 C          59.7853   89.4987    6.7045 C.2     1  UNL1        0.0209
     26 C          60.1685   89.8921    8.1004 C.2     1  UNL1        0.0016
     27 C          60.6087   88.8453    9.0805 C.ar    1  UNL1        0.0000
     28 C          61.6635   89.1665   10.0975 C.ar    1  UNL1       -0.0003
     29 C          62.1037   88.1199   11.0777 C.ar    1  UNL1       -0.0029
     30 C          61.4891   86.7521   11.0408 C.ar    1  UNL1       -0.0061
     31 C          60.4344   86.4309   10.0238 C.ar    1  UNL1       -0.0029
     32 C          59.9941   87.4776    9.0437 C.ar    1  UNL1       -0.0003
     33 C          61.9294   85.7055   12.0210 C.3     1  UNL1        0.0993
     34 N          62.8828   84.6299   11.5921 N.3     1  UNL1       -0.2646
     35 C          63.1791   84.4274   10.1356 C.3     1  UNL1        0.1049
     36 C          64.1325   83.3518    9.7067 C.3     1  UNL1        0.1595
     37 O          64.7897   82.4787   10.7342 O.3     1  UNL1       -0.3508
     38 C          64.4935   82.6812   12.1906 C.3     1  UNL1        0.1595
     39 C          63.5400   83.7568   12.6196 C.3     1  UNL1        0.1049
@<TRIPOS>BOND
     1    23    24    1
     2    24    10    1
     3    10    11   ar
     4    11    12   ar
     5    12    13   ar
     6    13    14   ar
     7    14    15   ar
     8    14    16    1
     9    16    17    1
    10    17    18    1
    11    18     1    1
    12     1     2    2
    13     2     3    1
    14     3     4    2
    15     4     5    1
    16     5    25    1
    17    25    26    2
    18    26    27    1
    19    27    28   ar
    20    28    29   ar
    21    29    30   ar
    22    30    33    1
    23    33    34    1
    24    34    35    1
    25    35    36    1
    26    36    37    1
    27    37    38    1
    28    38    39    1
    29    30    31   ar
    30    31    32   ar
    31     5     6    2
    32     6     7    1
    33     7     8    2
    34     8     9    1
    35    16    19    1
    36    19    20    2
    37    19    21   am
    38    21    22    1
    39    15    10   ar
    40    18    16    1
    41     9     1    1
    42    21    13    1
    43     8     4    1
    44    32    27   ar
    45    39    34    1
@<TRIPOS>MOLECULE
*****
 39 45 0 0 0
SMALL
GASTEIGER

@<TRIPOS>ATOM
      1 C          61.1260   92.7384    1.8535 C.2     1  UNL1       -0.0378
      2 C          62.1367   91.9965    2.6770 C.2     1  UNL1       -0.0080
      3 C          61.7186   91.3256    3.9518 C.2     1  UNL1        0.0022
      4 C          60.2899   91.3967    4.4032 C.2     1  UNL1        0.0350
      5 C          59.5882   90.8380    5.6055 C.2     1  UNL1        0.1040
      6 N          58.1438   91.2347    5.5252 N.2     1  UNL1       -0.1483
      7 N          57.9529   92.0385    4.2732 N.2     1  UNL1       -0.1520
      8 C          59.2792   92.1386    3.5798 C.2     1  UNL1        0.0860
      9 C          59.6972   92.8095    2.3050 C.3     1  UNL1        0.0697
     10 C          62.7116   95.9762   -3.9615 C.ar    1  UNL1        0.1385
     11 C          61.5254   96.8442   -4.2606 C.ar    1  UNL1        0.0382
     12 C          60.3438   96.8439   -3.3364 C.ar    1  UNL1        0.0177
     13 C          60.3486   95.9757   -2.1133 C.ar    1  UNL1        0.0505
     14 C          61.5348   95.1077   -1.8142 C.ar    1  UNL1        0.0024
     15 C          62.7164   95.1079   -2.7383 C.ar    1  UNL1        0.0343
     16 C          61.2552   94.3627   -0.5427 C.3     1  UNL1        0.0931
     17 C          62.5567   93.6179   -0.5079 C.3     1  UNL1        0.0179
     18 C          61.5440   93.4093    0.5787 C.3     1  UNL1        0.0315
     19 C          59.8961   94.7702   -0.0560 C.2     1  UNL1        0.2326
     20 O          59.2166   94.2688    1.1837 O.2     1  UNL1       -0.2742
     21 N          59.3357   95.7671   -1.0266 N.am    1  UNL1       -0.2569
     22 C          57.9976   96.4377   -0.9280 C.3     1  UNL1        0.1200
     23 C          64.3417   94.6982   -5.5298 C.3     1  UNL1        0.2525
     24 O          63.8932   95.9764   -4.8856 O.3     1  UNL1       -0.4714
     25 C          60.2200   90.0254    6.6966 C.2     1  UNL1        0.0209
     26 C          59.4951   88.8421    7.2661 C.2     1  UNL1        0.0016
     27 C          60.1268   88.0294    8.3573 C.ar    1  UNL1        0.0000
     28 C          60.4228   88.6593    9.6860 C.ar    1  UNL1       -0.0003
     29 C          61.0545   87.8467   10.7772 C.ar    1  UNL1       -0.0029
     30 C          61.3901   86.4042   10.5395 C.ar    1  UNL1       -0.0061
     31 C          61.0941   85.7743    9.2108 C.ar    1  UNL1       -0.0029
     32 C          60.4624   86.5869    8.1196 C.ar    1  UNL1       -0.0003
     33 C          62.0218   85.5916   11.6307 C.3     1  UNL1        0.0993
     34 N          62.9079   86.2550   12.6428 N.3     1  UNL1       -0.2646
     35 C          63.6140   85.4295   13.6772 C.3     1  UNL1        0.1049
     36 C          64.5002   86.0929   14.6895 C.3     1  UNL1        0.1595
     37 O          64.6802   87.5819   14.6674 O.3     1  UNL1       -0.3508
     38 C          63.9741   88.4074   13.6330 C.3     1  UNL1        0.1595
     39 C          63.0880   87.7440   12.6208 C.3     1  UNL1        0.1049
@<TRIPOS>BOND
     1    23    24    1
     2    24    10    1
     3    10    11   ar
     4    11    12   ar
     5    12    13   ar
     6    13    14   ar
     7    14    15   ar
     8    14    16    1
     9    16    17    1
    10    17    18    1
    11    18     1    1
    12     1     2    2
    13     2     3    1
    14     3     4    2
    15     4     5    1
    16     5    25    1
    17    25    26    2
    18    26    27    1
    19    27    28   ar
    20    28    29   ar
    21    29    30   ar
    22    30    33    1
    23    33    34    1
    24    34    35    1
    25    35    36    1
    26    36    37    1
    27    37    38    1
    28    38    39    1
    29    30    31   ar
    30    31    32   ar
    31     5     6    2
    32     6     7    1
    33     7     8    2
    34     8     9    1
    35    16    19    1
    36    19    20    2
    37    19    21   am
    38    21    22    1
    39    15    10   ar
    40    18    16    1
    41     9     1    1
    42    21    13    1
    43     8     4    1
    44    32    27   ar
    45    39    34    1
