@<TRIPOS>MOLECULE
*****
 29 31 0 0 0
SMALL
GASTEIGER

@<TRIPOS>ATOM
      1 C          64.7496   91.7703   12.6753 C.ar    1  UNL1        0.1724
      2 C          65.6142   91.4624   13.8617 C.ar    1  UNL1        0.0402
      3 C          65.3348   90.2494   14.6987 C.ar    1  UNL1        0.0078
      4 C          64.1909   89.3442   14.3493 C.ar    1  UNL1        0.0566
      5 C          63.3264   89.6521   13.1629 C.ar    1  UNL1        0.0445
      6 C          63.6057   90.8651   12.3258 C.ar    1  UNL1        0.1722
      7 C          63.9116   88.1312   15.1863 C.2     1  UNL1        0.2462
      8 O          63.2921   88.2832   16.5439 O.2     1  UNL1       -0.2701
      9 N          64.2518   86.7662   14.6658 N.am    1  UNL1       -0.2956
     10 H          64.6584   86.6665   13.7747 H       1  UNL1        0.1501
     11 C          63.9725   85.5532   15.5028 C.3     1  UNL1        0.1366
     12 C          63.5992   84.2578   14.8449 C.ar    1  UNL1        0.0855
     13 C          64.3853   83.5505   13.7811 C.ar    1  UNL1        0.0530
     14 S          63.6462   82.2979   13.4141 S.2     1  UNL1       -0.0705
     15 C          62.4032   82.2311   14.2512 C.ar    1  UNL1        0.0883
     16 C          61.3706   81.1438   14.2110 C.3     1  UNL1        0.0594
     17 N          62.3742   83.4424   15.1354 N.ar    1  UNL1       -0.2453
     18 C          66.1930   93.8700   12.1677 C.3     1  UNL1        0.2526
     19 O          65.0289   92.9833   11.8382 O.3     1  UNL1       -0.4684
     20 O          62.7410   91.1729   11.1393 O.3     1  UNL1       -0.4760
     21 C          62.0880   90.0579   10.3777 C.3     1  UNL1        0.1688
     22 C          62.7690   88.7259   10.2668 C.3     1  UNL1        0.0609
     23 C          62.1160   87.6108    9.5052 C.3     1  UNL1        0.0758
     24 N          60.7820   87.8276    8.8544 N.3     1  UNL1       -0.2737
     25 C          60.1010   89.1595    8.9653 C.3     1  UNL1        0.0758
     26 C          60.7540   90.2746    9.7270 C.3     1  UNL1        0.0609
     27 C          60.1290   86.7125    8.0928 C.3     1  UNL1        0.0576
     28 C          58.6468   86.7288    7.8627 C.3     1  UNL1        0.0173
     29 C          60.9581   85.5811    7.5613 C.3     1  UNL1        0.0173
@<TRIPOS>BOND
     1    18    19    1
     2    19     1    1
     3     1     2   ar
     4     2     3   ar
     5     3     4   ar
     6     4     7    1
     7     7     8    2
     8     7     9   am
     9     9    11    1
    10    11    12    1
    11    12    13   ar
    12    13    14   ar
    13    14    15   ar
    14    15    16    1
    15    15    17   ar
    16     4     5   ar
    17     5     6   ar
    18     6    20    1
    19    20    21    1
    20    21    22    1
    21    22    23    1
    22    23    24    1
    23    24    27    1
    24    27    28    1
    25    27    29    1
    26    24    25    1
    27    25    26    1
    28     6     1   ar
    29    26    21    1
    30    17    12   ar
    31     9    10    1
@<TRIPOS>MOLECULE
*****
 29 31 0 0 0
SMALL
GASTEIGER

@<TRIPOS>ATOM
      1 C          60.5169   88.5120    8.9870 C.ar    1  UNL1        0.1724
      2 C          60.2954   87.0628    8.6696 C.ar    1  UNL1        0.0402
      3 C          61.0272   86.0055    9.4421 C.ar    1  UNL1        0.0078
      4 C          61.9804   86.3974   10.5319 C.ar    1  UNL1        0.0566
      5 C          62.2018   87.8465   10.8493 C.ar    1  UNL1        0.0445
      6 C          61.4701   88.9038   10.0768 C.ar    1  UNL1        0.1722
      7 C          62.7121   85.3401   11.3043 C.2     1  UNL1        0.2462
      8 O          63.1762   84.0923   10.6132 O.2     1  UNL1       -0.2701
      9 N          62.9798   85.5305   12.7679 N.am    1  UNL1       -0.2956
     10 H          62.6752   86.3495   13.2215 H       1  UNL1        0.1501
     11 C          63.7115   84.4732   13.5403 C.3     1  UNL1        0.1366
     12 C          63.1609   83.0797   13.6109 C.ar    1  UNL1        0.0855
     13 C          63.9031   81.8203   13.2747 C.ar    1  UNL1        0.0530
     14 S          62.9724   80.6631   13.4861 S.2     1  UNL1       -0.0705
     15 C          61.6548   81.2074   13.9530 C.ar    1  UNL1        0.0883
     16 C          60.4350   80.3999   14.2846 C.3     1  UNL1        0.0594
     17 N          61.7714   82.7009   14.0302 N.ar    1  UNL1       -0.2453
     18 C          59.3756   89.3125    6.7946 C.3     1  UNL1        0.2526
     19 O          59.7851   89.5693    8.2146 O.3     1  UNL1       -0.4684
     20 O          61.6916   90.3531   10.3943 O.3     1  UNL1       -0.4760
     21 C          62.8173   90.7592   11.2985 C.3     1  UNL1        0.1688
     22 C          63.9297   91.6171   10.7725 C.3     1  UNL1        0.0609
     23 C          65.0554   92.0233   11.6768 C.3     1  UNL1        0.0758
     24 N          65.0688   91.5716   13.1071 N.3     1  UNL1       -0.2737
     25 C          63.9565   90.7138   13.6331 C.3     1  UNL1        0.0758
     26 C          62.8307   90.3075   12.7289 C.3     1  UNL1        0.0609
     27 C          66.1945   91.9778   14.0114 C.3     1  UNL1        0.0576
     28 C          67.6039   91.9854   13.4976 C.3     1  UNL1        0.0173
     29 C          65.9110   92.3763   15.4294 C.3     1  UNL1        0.0173
@<TRIPOS>BOND
     1    18    19    1
     2    19     1    1
     3     1     2   ar
     4     2     3   ar
     5     3     4   ar
     6     4     7    1
     7     7     8    2
     8     7     9   am
     9     9    11    1
    10    11    12    1
    11    12    13   ar
    12    13    14   ar
    13    14    15   ar
    14    15    16    1
    15    15    17   ar
    16     4     5   ar
    17     5     6   ar
    18     6    20    1
    19    20    21    1
    20    21    22    1
    21    22    23    1
    22    23    24    1
    23    24    27    1
    24    27    28    1
    25    27    29    1
    26    24    25    1
    27    25    26    1
    28     6     1   ar
    29    26    21    1
    30    17    12   ar
    31     9    10    1
@<TRIPOS>MOLECULE
*****
 29 31 0 0 0
SMALL
GASTEIGER

@<TRIPOS>ATOM
      1 C          63.2633   88.3093   16.0442 C.ar    1  UNL1        0.1724
      2 C          63.2184   89.5541   16.8798 C.ar    1  UNL1        0.0402
      3 C          63.8905   90.8056   16.3979 C.ar    1  UNL1        0.0078
      4 C          64.6074   90.8122   15.0804 C.ar    1  UNL1        0.0566
      5 C          64.6523   89.5673   14.2448 C.ar    1  UNL1        0.0445
      6 C          63.9803   88.3159   14.7267 C.ar    1  UNL1        0.1722
      7 C          65.2795   92.0636   14.5985 C.2     1  UNL1        0.2462
      8 O          65.8417   93.0414   15.5873 O.2     1  UNL1       -0.2701
      9 N          65.3892   92.3373   13.1278 N.am    1  UNL1       -0.2956
     10 H          65.0202   91.6955   12.4788 H       1  UNL1        0.1501
     11 C          66.0613   93.5887   12.6459 C.3     1  UNL1        0.1366
     12 C          66.7511   93.6043   11.3139 C.ar    1  UNL1        0.0855
     13 C          66.7210   94.7261   10.3185 C.ar    1  UNL1        0.0530
     14 S          67.5433   94.3161    9.1330 S.2     1  UNL1       -0.0705
     15 C          68.0816   92.9408    9.3956 C.ar    1  UNL1        0.0883
     16 C          68.9561   92.1451    8.4724 C.3     1  UNL1        0.0594
     17 N          67.5920   92.5010   10.7435 N.ar    1  UNL1       -0.2453
     18 C          62.7393   86.6301   17.9562 C.3     1  UNL1        0.2526
     19 O          62.5913   87.0578   16.5261 O.3     1  UNL1       -0.4684
     20 O          64.0252   87.0710   13.8910 O.3     1  UNL1       -0.4760
     21 C          63.2191   86.9854   12.6290 C.3     1  UNL1        0.1688
     22 C          62.7602   85.6506   12.1212 C.3     1  UNL1        0.0609
     23 C          61.9541   85.5650   10.8591 C.3     1  UNL1        0.0758
     24 N          61.6068   86.8142   10.1048 N.3     1  UNL1       -0.2737
     25 C          62.0657   88.1489   10.6125 C.3     1  UNL1        0.0758
     26 C          62.8718   88.2346   11.8746 C.3     1  UNL1        0.0609
     27 C          60.8007   86.7286    8.8427 C.3     1  UNL1        0.0576
     28 C          59.6605   87.6764    8.6153 C.3     1  UNL1        0.0173
     29 C          61.1348   85.6952    7.8080 C.3     1  UNL1        0.0173
@<TRIPOS>BOND
     1    18    19    1
     2    19     1    1
     3     1     2   ar
     4     2     3   ar
     5     3     4   ar
     6     4     7    1
     7     7     8    2
     8     7     9   am
     9     9    11    1
    10    11    12    1
    11    12    13   ar
    12    13    14   ar
    13    14    15   ar
    14    15    16    1
    15    15    17   ar
    16     4     5   ar
    17     5     6   ar
    18     6    20    1
    19    20    21    1
    20    21    22    1
    21    22    23    1
    22    23    24    1
    23    24    27    1
    24    27    28    1
    25    27    29    1
    26    24    25    1
    27    25    26    1
    28     6     1   ar
    29    26    21    1
    30    17    12   ar
    31     9    10    1
@<TRIPOS>MOLECULE
*****
 29 31 0 0 0
SMALL
GASTEIGER

@<TRIPOS>ATOM
      1 C          60.3253   88.3050    9.6653 C.ar    1  UNL1        0.1724
      2 C          59.9343   89.6802   10.1190 C.ar    1  UNL1        0.0402
      3 C          60.9577   90.5846   10.7392 C.ar    1  UNL1        0.0078
      4 C          62.3722   90.1139   10.9056 C.ar    1  UNL1        0.0566
      5 C          62.7632   88.7387   10.4519 C.ar    1  UNL1        0.0445
      6 C          61.7398   87.8342    9.8318 C.ar    1  UNL1        0.1722
      7 C          63.3956   91.0183   11.5258 C.2     1  UNL1        0.2462
      8 O          63.5075   91.1119   13.0187 O.2     1  UNL1       -0.2701
      9 N          64.3071   91.8292   10.6531 N.am    1  UNL1       -0.2956
     10 H          64.2336   91.7678    9.6733 H       1  UNL1        0.1501
     11 C          65.3305   92.7336   11.2733 C.3     1  UNL1        0.1366
     12 C          66.2049   93.5857   10.4017 C.ar    1  UNL1        0.0855
     13 C          67.4686   93.1470    9.7232 C.ar    1  UNL1        0.0530
     14 S          68.0138   94.3161    8.9578 S.2     1  UNL1       -0.0705
     15 C          67.0869   95.4775    9.1633 C.ar    1  UNL1        0.0883
     16 C          67.2495   96.8494    8.5790 C.3     1  UNL1        0.0594
     17 N          65.9690   95.0260   10.0557 N.ar    1  UNL1       -0.2453
     18 C          59.1470   87.3545    7.5539 C.3     1  UNL1        0.2526
     19 O          59.3019   87.4005    9.0452 O.3     1  UNL1       -0.4684
     20 O          62.1308   86.4590    9.3780 O.3     1  UNL1       -0.4760
     21 C          62.4530   85.3990   10.3892 C.3     1  UNL1        0.1688
     22 C          62.0580   85.5863   11.8241 C.3     1  UNL1        0.0609
     23 C          62.3802   84.5263   12.8353 C.3     1  UNL1        0.0758
     24 N          63.0975   83.2789   12.4116 N.3     1  UNL1       -0.2737
     25 C          63.4925   83.0915   10.9768 C.3     1  UNL1        0.0758
     26 C          63.1703   84.1516    9.9656 C.3     1  UNL1        0.0609
     27 C          63.4197   82.2189   13.4228 C.3     1  UNL1        0.0576
     28 C          64.0293   82.5990   14.7396 C.3     1  UNL1        0.0173
     29 C          63.1322   80.7787   13.1172 C.3     1  UNL1        0.0173
@<TRIPOS>BOND
     1    18    19    1
     2    19     1    1
     3     1     2   ar
     4     2     3   ar
     5     3     4   ar
     6     4     7    1
     7     7     8    2
     8     7     9   am
     9     9    11    1
    10    11    12    1
    11    12    13   ar
    12    13    14   ar
    13    14    15   ar
    14    15    16    1
    15    15    17   ar
    16     4     5   ar
    17     5     6   ar
    18     6    20    1
    19    20    21    1
    20    21    22    1
    21    22    23    1
    22    23    24    1
    23    24    27    1
    24    27    28    1
    25    27    29    1
    26    24    25    1
    27    25    26    1
    28     6     1   ar
    29    26    21    1
    30    17    12   ar
    31     9    10    1
@<TRIPOS>MOLECULE
*****
 29 31 0 0 0
SMALL
GASTEIGER

@<TRIPOS>ATOM
      1 C          60.6879   86.0788    7.6959 C.ar    1  UNL1        0.1724
      2 C          59.6938   87.1991    7.6161 C.ar    1  UNL1        0.0402
      3 C          59.8800   88.4283    8.4554 C.ar    1  UNL1        0.0078
      4 C          61.0604   88.5371    9.3745 C.ar    1  UNL1        0.0566
      5 C          62.0546   87.4167    9.4543 C.ar    1  UNL1        0.0445
      6 C          61.8683   86.1876    8.6150 C.ar    1  UNL1        0.1722
      7 C          61.2467   89.7663   10.2138 C.2     1  UNL1        0.2462
      8 O          60.1061   90.7204   10.4100 O.2     1  UNL1       -0.2701
      9 N          62.5736   90.0414   10.8569 N.am    1  UNL1       -0.2956
     10 H          63.3223   89.4151   10.7281 H       1  UNL1        0.1501
     11 C          62.7599   91.2705   11.6962 C.3     1  UNL1        0.1366
     12 C          64.1391   91.8018   11.9524 C.ar    1  UNL1        0.0855
     13 C          65.0959   92.3081   10.9140 C.ar    1  UNL1        0.0530
     14 S          66.3518   92.7393   11.6117 S.2     1  UNL1       -0.0705
     15 C          66.1711   92.4995   13.0814 C.ar    1  UNL1        0.0883
     16 C          67.1807   92.7884   14.1525 C.3     1  UNL1        0.0594
     17 N          64.8036   91.9202   13.2919 N.ar    1  UNL1       -0.2453
     18 C          61.5766   84.4239    5.9010 C.3     1  UNL1        0.2526
     19 O          60.5016   84.8496    6.8566 O.3     1  UNL1       -0.4684
     20 O          62.8625   85.0672    8.6948 O.3     1  UNL1       -0.4760
     21 C          63.0922   84.3597    9.9973 C.3     1  UNL1        0.1688
     22 C          64.0300   83.1906   10.0607 C.3     1  UNL1        0.0609
     23 C          64.2598   82.4831   11.3632 C.3     1  UNL1        0.0758
     24 N          63.5517   82.9446   12.6024 N.3     1  UNL1       -0.2737
     25 C          62.6140   84.1136   12.5392 C.3     1  UNL1        0.0758
     26 C          62.3842   84.8212   11.2366 C.3     1  UNL1        0.0609
     27 C          63.7814   82.2371   13.9050 C.3     1  UNL1        0.0576
     28 C          63.6543   80.7444   13.9803 C.3     1  UNL1        0.0173
     29 C          64.1383   83.0223   15.1322 C.3     1  UNL1        0.0173
@<TRIPOS>BOND
     1    18    19    1
     2    19     1    1
     3     1     2   ar
     4     2     3   ar
     5     3     4   ar
     6     4     7    1
     7     7     8    2
     8     7     9   am
     9     9    11    1
    10    11    12    1
    11    12    13   ar
    12    13    14   ar
    13    14    15   ar
    14    15    16    1
    15    15    17   ar
    16     4     5   ar
    17     5     6   ar
    18     6    20    1
    19    20    21    1
    20    21    22    1
    21    22    23    1
    22    23    24    1
    23    24    27    1
    24    27    28    1
    25    27    29    1
    26    24    25    1
    27    25    26    1
    28     6     1   ar
    29    26    21    1
    30    17    12   ar
    31     9    10    1
@<TRIPOS>MOLECULE
*****
 29 31 0 0 0
SMALL
GASTEIGER

@<TRIPOS>ATOM
      1 C          64.0510   83.3601   13.8705 C.ar    1  UNL1        0.1724
      2 C          64.2486   83.6449   15.3298 C.ar    1  UNL1        0.0402
      3 C          64.1926   85.0570   15.8327 C.ar    1  UNL1        0.0078
      4 C          63.9389   86.1843   14.8762 C.ar    1  UNL1        0.0566
      5 C          63.7413   85.8994   13.4169 C.ar    1  UNL1        0.0445
      6 C          63.7973   84.4873   12.9140 C.ar    1  UNL1        0.1722
      7 C          63.8829   87.5963   15.3791 C.2     1  UNL1        0.2462
      8 O          63.3081   87.8879   16.7335 O.2     1  UNL1       -0.2701
      9 N          64.4016   88.7169   14.5275 N.am    1  UNL1       -0.2956
     10 H          64.7788   88.5256   13.6385 H       1  UNL1        0.1501
     11 C          64.3455   90.1290   15.0304 C.3     1  UNL1        0.1366
     12 C          65.1901   91.1884   14.3866 C.ar    1  UNL1        0.0855
     13 C          66.5511   91.6272   14.8398 C.ar    1  UNL1        0.0530
     14 S          67.0242   92.7050   13.9101 S.2     1  UNL1       -0.0705
     15 C          65.9555   92.9324   12.8822 C.ar    1  UNL1        0.0883
     16 C          66.0107   93.9232   11.7573 C.3     1  UNL1        0.0594
     17 N          64.8221   91.9951   13.1768 N.ar    1  UNL1       -0.2453
     18 C          62.8677   81.1031   13.3650 C.3     1  UNL1        0.2526
     19 O          64.1070   81.9480   13.3676 O.3     1  UNL1       -0.4684
     20 O          63.5997   84.2025   11.4545 O.3     1  UNL1       -0.4760
     21 C          62.6778   85.0617   10.6409 C.3     1  UNL1        0.1688
     22 C          61.6115   85.8696   11.3193 C.3     1  UNL1        0.0609
     23 C          60.6897   86.7287   10.5057 C.3     1  UNL1        0.0758
     24 N          60.8341   86.7800    9.0135 N.3     1  UNL1       -0.2737
     25 C          61.9004   85.9721    8.3350 C.3     1  UNL1        0.0758
     26 C          62.8223   85.1129    9.1487 C.3     1  UNL1        0.0609
     27 C          59.9123   87.6391    8.1998 C.3     1  UNL1        0.0576
     28 C          58.8424   87.0058    7.3606 C.3     1  UNL1        0.0173
     29 C          60.0604   89.1315    8.2253 C.3     1  UNL1        0.0173
@<TRIPOS>BOND
     1    18    19    1
     2    19     1    1
     3     1     2   ar
     4     2     3   ar
     5     3     4   ar
     6     4     7    1
     7     7     8    2
     8     7     9   am
     9     9    11    1
    10    11    12    1
    11    12    13   ar
    12    13    14   ar
    13    14    15   ar
    14    15    16    1
    15    15    17   ar
    16     4     5   ar
    17     5     6   ar
    18     6    20    1
    19    20    21    1
    20    21    22    1
    21    22    23    1
    22    23    24    1
    23    24    27    1
    24    27    28    1
    25    27    29    1
    26    24    25    1
    27    25    26    1
    28     6     1   ar
    29    26    21    1
    30    17    12   ar
    31     9    10    1
@<TRIPOS>MOLECULE
*****
 29 31 0 0 0
SMALL
GASTEIGER

@<TRIPOS>ATOM
      1 C          59.7893   88.6204    7.9098 C.ar    1  UNL1        0.1724
      2 C          59.6649   87.2220    7.3818 C.ar    1  UNL1        0.0402
      3 C          60.4742   86.1155    7.9906 C.ar    1  UNL1        0.0078
      4 C          61.4081   86.4075    9.1276 C.ar    1  UNL1        0.0566
      5 C          61.5325   87.8059    9.6556 C.ar    1  UNL1        0.0445
      6 C          60.7232   88.9123    9.0468 C.ar    1  UNL1        0.1722
      7 C          62.2174   85.3010    9.7364 C.2     1  UNL1        0.2462
      8 O          63.3121   84.6493    8.9447 O.2     1  UNL1       -0.2701
      9 N          61.9321   84.8463   11.1371 N.am    1  UNL1       -0.2956
     10 H          61.2136   85.2740   11.6567 H       1  UNL1        0.1501
     11 C          62.7414   83.7399   11.7459 C.3     1  UNL1        0.1366
     12 C          63.1960   83.8403   13.1719 C.ar    1  UNL1        0.0855
     13 C          63.8484   82.7493   13.9683 C.ar    1  UNL1        0.0530
     14 S          64.1336   83.2840   15.3404 S.2     1  UNL1       -0.0705
     15 C          63.6575   84.7056   15.3920 C.ar    1  UNL1        0.0883
     16 C          63.7454   85.6224   16.5760 C.3     1  UNL1        0.0594
     17 N          63.0780   85.0493   14.0518 N.ar    1  UNL1       -0.2453
     18 C          59.1529   90.0726    5.8517 C.3     1  UNL1        0.2526
     19 O          58.9800   89.7268    7.3010 O.3     1  UNL1       -0.4684
     20 O          60.8477   90.3108    9.5749 O.3     1  UNL1       -0.4760
     21 C          61.9717   90.6647   10.5030 C.3     1  UNL1        0.1688
     22 C          63.1489   91.4420    9.9930 C.3     1  UNL1        0.0609
     23 C          64.2729   91.7959   10.9211 C.3     1  UNL1        0.0758
     24 N          64.2197   91.3726   12.3591 N.3     1  UNL1       -0.2737
     25 C          63.0425   90.5954   12.8691 C.3     1  UNL1        0.0758
     26 C          61.9185   90.2414   11.9410 C.3     1  UNL1        0.0609
     27 C          65.3437   91.7265   13.2872 C.3     1  UNL1        0.0576
     28 C          66.3150   92.8061   12.9114 C.3     1  UNL1        0.0173
     29 C          65.4964   91.0009   14.5911 C.3     1  UNL1        0.0173
@<TRIPOS>BOND
     1    18    19    1
     2    19     1    1
     3     1     2   ar
     4     2     3   ar
     5     3     4   ar
     6     4     7    1
     7     7     8    2
     8     7     9   am
     9     9    11    1
    10    11    12    1
    11    12    13   ar
    12    13    14   ar
    13    14    15   ar
    14    15    16    1
    15    15    17   ar
    16     4     5   ar
    17     5     6   ar
    18     6    20    1
    19    20    21    1
    20    21    22    1
    21    22    23    1
    22    23    24    1
    23    24    27    1
    24    27    28    1
    25    27    29    1
    26    24    25    1
    27    25    26    1
    28     6     1   ar
    29    26    21    1
    30    17    12   ar
    31     9    10    1
@<TRIPOS>MOLECULE
*****
 29 31 0 0 0
SMALL
GASTEIGER

@<TRIPOS>ATOM
      1 C          63.4132   90.0980   16.0096 C.ar    1  UNL1        0.1724
      2 C          63.5213   88.8112   16.7727 C.ar    1  UNL1        0.0402
      3 C          63.7133   87.5175   16.0383 C.ar    1  UNL1        0.0078
      4 C          63.7970   87.5105   14.5407 C.ar    1  UNL1        0.0566
      5 C          63.6889   88.7973   13.7775 C.ar    1  UNL1        0.0445
      6 C          63.4969   90.0910   14.5120 C.ar    1  UNL1        0.1722
      7 C          63.9890   86.2168   13.8062 C.2     1  UNL1        0.2462
      8 O          65.1111   85.2973   14.1874 O.2     1  UNL1       -0.2701
      9 N          63.0588   85.8425   12.6907 N.am    1  UNL1       -0.2956
     10 H          62.3222   86.4460   12.4405 H       1  UNL1        0.1501
     11 C          63.2507   84.5488   11.9562 C.3     1  UNL1        0.1366
     12 C          62.8661   83.2529   12.6066 C.ar    1  UNL1        0.0855
     13 C          62.2820   83.0945   13.9791 C.ar    1  UNL1        0.0530
     14 S          62.0531   81.6317   14.2195 S.2     1  UNL1       -0.0705
     15 C          62.4957   80.8860   12.9955 C.ar    1  UNL1        0.0883
     16 C          62.4447   79.3994   12.8022 C.3     1  UNL1        0.0594
     17 N          62.9982   81.8880   11.9987 N.ar    1  UNL1       -0.2453
     18 C          64.3668   92.3491   16.8887 C.3     1  UNL1        0.2526
     19 O          63.2212   91.3917   16.7440 O.3     1  UNL1       -0.4684
     20 O          63.3888   91.3778   13.7487 O.3     1  UNL1       -0.4760
     21 C          64.4664   91.7689   12.7813 C.3     1  UNL1        0.1688
     22 C          65.8558   92.0417   13.2764 C.3     1  UNL1        0.0609
     23 C          66.9334   92.4328   12.3090 C.3     1  UNL1        0.0758
     24 N          66.6216   92.5511   10.8466 N.3     1  UNL1       -0.2737
     25 C          65.2322   92.2783   10.3515 C.3     1  UNL1        0.0758
     26 C          64.1545   91.8872   11.3189 C.3     1  UNL1        0.0609
     27 C          67.6992   92.9421    9.8792 C.3     1  UNL1        0.0576
     28 C          68.6945   91.9216    9.4124 C.3     1  UNL1        0.0173
     29 C          67.7814   94.3537    9.3786 C.3     1  UNL1        0.0173
@<TRIPOS>BOND
     1    18    19    1
     2    19     1    1
     3     1     2   ar
     4     2     3   ar
     5     3     4   ar
     6     4     7    1
     7     7     8    2
     8     7     9   am
     9     9    11    1
    10    11    12    1
    11    12    13   ar
    12    13    14   ar
    13    14    15   ar
    14    15    16    1
    15    15    17   ar
    16     4     5   ar
    17     5     6   ar
    18     6    20    1
    19    20    21    1
    20    21    22    1
    21    22    23    1
    22    23    24    1
    23    24    27    1
    24    27    28    1
    25    27    29    1
    26    24    25    1
    27    25    26    1
    28     6     1   ar
    29    26    21    1
    30    17    12   ar
    31     9    10    1
@<TRIPOS>MOLECULE
*****
 29 31 0 0 0
SMALL
GASTEIGER

@<TRIPOS>ATOM
      1 C          63.3205   84.5811   15.5091 C.ar    1  UNL1        0.1724
      2 C          62.9429   85.3735   16.7253 C.ar    1  UNL1        0.0402
      3 C          63.1188   86.8632   16.7343 C.ar    1  UNL1        0.0078
      4 C          63.6723   87.5603   15.5270 C.ar    1  UNL1        0.0566
      5 C          64.0498   86.7678   14.3107 C.ar    1  UNL1        0.0445
      6 C          63.8739   85.2782   14.3017 C.ar    1  UNL1        0.1722
      7 C          63.8482   89.0499   15.5360 C.2     1  UNL1        0.2462
      8 O          63.3869   89.8525   16.7162 O.2     1  UNL1       -0.2701
      9 N          64.4854   89.7370   14.3647 N.am    1  UNL1       -0.2956
     10 H          64.7882   89.2102   13.5900 H       1  UNL1        0.1501
     11 C          64.6613   91.2266   14.3737 C.3     1  UNL1        0.1366
     12 C          66.0312   91.8191   14.5234 C.ar    1  UNL1        0.0855
     13 C          67.1895   91.6080   13.5940 C.ar    1  UNL1        0.0530
     14 S          68.3574   92.3852   14.1249 S.2     1  UNL1       -0.0705
     15 C          67.9209   93.0767   15.3824 C.ar    1  UNL1        0.0883
     16 C          68.7726   93.9625   16.2427 C.3     1  UNL1        0.0594
     17 N          66.4832   92.7269   15.6287 N.ar    1  UNL1       -0.2453
     18 C          62.0496   82.4704   14.6844 C.3     1  UNL1        0.2526
     19 O          63.1446   83.0914   15.5001 O.3     1  UNL1       -0.4684
     20 O          64.2515   84.4857   13.0854 O.3     1  UNL1       -0.4760
     21 C          63.5485   84.7300   11.7831 C.3     1  UNL1        0.1688
     22 C          64.0380   84.0657   10.5304 C.3     1  UNL1        0.0609
     23 C          63.3349   84.3100    9.2281 C.3     1  UNL1        0.0758
     24 N          62.1424   85.2185    9.1784 N.3     1  UNL1       -0.2737
     25 C          61.6529   85.8827   10.4310 C.3     1  UNL1        0.0758
     26 C          62.3560   85.6385   11.7334 C.3     1  UNL1        0.0609
     27 C          61.4394   85.4628    7.8761 C.3     1  UNL1        0.0576
     28 C          60.2368   86.3582    7.8294 C.3     1  UNL1        0.0173
     29 C          61.9388   84.8116    6.6205 C.3     1  UNL1        0.0173
@<TRIPOS>BOND
     1    18    19    1
     2    19     1    1
     3     1     2   ar
     4     2     3   ar
     5     3     4   ar
     6     4     7    1
     7     7     8    2
     8     7     9   am
     9     9    11    1
    10    11    12    1
    11    12    13   ar
    12    13    14   ar
    13    14    15   ar
    14    15    16    1
    15    15    17   ar
    16     4     5   ar
    17     5     6   ar
    18     6    20    1
    19    20    21    1
    20    21    22    1
    21    22    23    1
    22    23    24    1
    23    24    27    1
    24    27    28    1
    25    27    29    1
    26    24    25    1
    27    25    26    1
    28     6     1   ar
    29    26    21    1
    30    17    12   ar
    31     9    10    1
