@<TRIPOS>MOLECULE
*****
 39 41 0 0 0
SMALL
GASTEIGER

@<TRIPOS>ATOM
      1 C          62.5287   88.5039   11.6858 C.2     1  UNL1        0.2491
      2 O          63.1046   87.2138   12.1895 O.2     1  UNL1       -0.2699
      3 N          61.2144   88.5069   10.9628 N.am    1  UNL1       -0.2775
      4 C          64.3161   91.5366   13.5183 C.ar    1  UNL1        0.1723
      5 C          63.5778   90.2494   13.2991 C.ar    1  UNL1        0.0446
      6 C          63.2670   89.7911   11.9050 C.ar    1  UNL1        0.0568
      7 C          63.6946   90.6200   10.7302 C.ar    1  UNL1        0.0078
      8 C          64.4329   91.9071   10.9495 C.ar    1  UNL1        0.0402
      9 C          64.7437   92.3654   12.3435 C.ar    1  UNL1        0.1724
     10 O          65.4820   93.6526   12.5628 O.3     1  UNL1       -0.4684
     11 C          66.3459   94.2166   11.4738 C.3     1  UNL1        0.2526
     12 O          64.6269   91.9949   14.9124 O.3     1  UNL1       -0.4723
     13 C          66.0473   92.0226   15.3937 C.3     1  UNL1        0.2082
     14 C          67.1086   91.2756   14.6416 C.3     1  UNL1        0.0794
     15 C          68.1598   92.0287   13.8813 C.3     1  UNL1        0.1461
     16 C          68.9434   93.6121   15.7861 C.3     1  UNL1        0.1741
     17 O          69.2640   92.7262   14.6189 O.3     1  UNL1       -0.3510
     18 C          60.6385   89.7972   10.4591 C.3     1  UNL1        0.0757
     19 C          60.7770   90.1659    9.0118 C.3     1  UNL1        0.0215
     20 C          59.9240   90.7186   11.4028 C.3     1  UNL1        0.0215
     21 C          60.4761   87.2198   10.7436 C.3     1  UNL1        0.0986
     22 C          60.3183   86.6726    9.3559 C.3     1  UNL1        0.0771
     23 C          59.0918   86.7816    8.4993 C.3     1  UNL1        0.0740
     24 N          59.3748   86.0967    7.1951 N.3     1  UNL1       -0.2943
     25 C          60.7763   85.5644    7.2457 C.3     1  UNL1        0.1129
     26 C          61.3594   85.9204    8.5811 C.3     1  UNL1        0.1890
     27 H          59.2850   86.7627    6.4278 H       1  UNL1        0.1234
     28 O          62.7410   85.5832    9.0580 O.3     1  UNL1       -0.4369
     29 C          62.9361   84.5276   10.1055 C.2     1  UNL1        0.4018
     30 O          61.9545   84.3987   11.2325 O.2     1  UNL1       -0.2264
     31 N          64.1128   83.6007   10.0263 N.am    1  UNL1       -0.2665
     32 H          64.7571   83.6852    9.2867 H       1  UNL1        0.1531
     33 C          64.3079   82.5450   11.0738 C.3     1  UNL1        0.1194
     34 C          63.8404   82.7868   12.4785 C.ar    1  UNL1       -0.0025
     35 C          62.7200   81.9676   13.0475 C.ar    1  UNL1       -0.0026
     36 C          62.2525   82.2094   14.4522 C.ar    1  UNL1       -0.0003
     37 C          62.9053   83.2703   15.2878 C.ar    1  UNL1       -0.0000
     38 C          64.0257   84.0895   14.7187 C.ar    1  UNL1       -0.0003
     39 C          64.4932   83.8477   13.3141 C.ar    1  UNL1       -0.0026
@<TRIPOS>BOND
     1    16    17    1
     2    17    15    1
     3    15    14    1
     4    14    13    1
     5    13    12    1
     6    12     4    1
     7     4     5   ar
     8     5     6   ar
     9     6     1    1
    10     1     2    2
    11     1     3   am
    12     3    21    1
    13    22    21    1
    14    22    23    1
    15    23    24    1
    16    24    25    1
    17    25    26    1
    18    26    28    1
    19    28    29    1
    20    29    30    2
    21    29    31   am
    22    31    33    1
    23    33    34    1
    24    34    35   ar
    25    35    36   ar
    26    36    37   ar
    27    37    38   ar
    28    38    39   ar
    29     3    18    1
    30    18    19    1
    31    18    20    1
    32     6     7   ar
    33     7     8   ar
    34     8     9   ar
    35     9    10    1
    36    10    11    1
    37     9     4   ar
    38    26    22    1
    39    39    34   ar
    40    24    27    1
    41    31    32    1
@<TRIPOS>MOLECULE
*****
 39 41 0 0 0
SMALL
GASTEIGER

@<TRIPOS>ATOM
      1 C          62.5187   88.3663   11.7119 C.2     1  UNL1        0.2491
      2 O          63.0683   87.0466   12.1660 O.2     1  UNL1       -0.2699
      3 N          61.2083   88.4226   10.9840 N.am    1  UNL1       -0.2775
      4 C          64.4004   91.2614   13.6684 C.ar    1  UNL1        0.1723
      5 C          63.6397   89.9980   13.3945 C.ar    1  UNL1        0.0446
      6 C          63.2794   89.6298   11.9857 C.ar    1  UNL1        0.0568
      7 C          63.6797   90.5252   10.8508 C.ar    1  UNL1        0.0078
      8 C          64.4403   91.7886   11.1247 C.ar    1  UNL1        0.0402
      9 C          64.8007   92.1568   12.5334 C.ar    1  UNL1        0.1724
     10 O          65.5613   93.4203   12.8073 O.3     1  UNL1       -0.4684
     11 C          66.1892   94.1780   11.6752 C.3     1  UNL1        0.2526
     12 O          64.7607   91.6295   15.0771 O.3     1  UNL1       -0.4723
     13 C          63.9275   91.1291   16.2196 C.3     1  UNL1        0.2082
     14 C          63.0925   89.8940   16.0543 C.3     1  UNL1        0.0794
     15 C          63.1847   88.7860   17.0613 C.3     1  UNL1        0.1461
     16 C          62.5011   86.3142   17.4772 C.3     1  UNL1        0.1741
     17 O          63.1421   87.3563   16.6094 O.3     1  UNL1       -0.3510
     18 C          60.6587   89.7424   10.5299 C.3     1  UNL1        0.0757
     19 C          60.8787   90.2009    9.1188 C.3     1  UNL1        0.0215
     20 C          59.8890   90.6035   11.4870 C.3     1  UNL1        0.0215
     21 C          60.4476   87.1591   10.7102 C.3     1  UNL1        0.0986
     22 C          60.3295   86.6441    9.3063 C.3     1  UNL1        0.0771
     23 C          59.1228   86.7609    8.4230 C.3     1  UNL1        0.0740
     24 N          59.4448   86.1108    7.1100 N.3     1  UNL1       -0.2943
     25 C          60.8505   85.5923    7.1819 C.3     1  UNL1        0.1129
     26 C          61.3972   85.9219    8.5393 C.3     1  UNL1        0.1890
     27 H          59.3660   86.7942    6.3569 H       1  UNL1        0.1234
     28 O          62.7706   85.5879    9.0415 O.3     1  UNL1       -0.4369
     29 C          62.9506   84.5199   10.0792 C.2     1  UNL1        0.4018
     30 O          61.8968   84.3048   11.1248 O.2     1  UNL1       -0.2264
     31 N          64.1845   83.6669   10.0715 N.am    1  UNL1       -0.2665
     32 H          64.8761   83.8080    9.3852 H       1  UNL1        0.1531
     33 C          64.3644   82.5989   11.1092 C.3     1  UNL1        0.1194
     34 C          63.8623   82.8178   12.5057 C.ar    1  UNL1       -0.0025
     35 C          62.7730   81.9459   13.0563 C.ar    1  UNL1       -0.0026
     36 C          62.2709   82.1648   14.4528 C.ar    1  UNL1       -0.0003
     37 C          62.8581   83.2556   15.2985 C.ar    1  UNL1       -0.0000
     38 C          63.9475   84.1275   14.7478 C.ar    1  UNL1       -0.0003
     39 C          64.4495   83.9086   13.3514 C.ar    1  UNL1       -0.0026
@<TRIPOS>BOND
     1    16    17    1
     2    17    15    1
     3    15    14    1
     4    14    13    1
     5    13    12    1
     6    12     4    1
     7     4     5   ar
     8     5     6   ar
     9     6     1    1
    10     1     2    2
    11     1     3   am
    12     3    21    1
    13    22    21    1
    14    22    23    1
    15    23    24    1
    16    24    25    1
    17    25    26    1
    18    26    28    1
    19    28    29    1
    20    29    30    2
    21    29    31   am
    22    31    33    1
    23    33    34    1
    24    34    35   ar
    25    35    36   ar
    26    36    37   ar
    27    37    38   ar
    28    38    39   ar
    29     3    18    1
    30    18    19    1
    31    18    20    1
    32     6     7   ar
    33     7     8   ar
    34     8     9   ar
    35     9    10    1
    36    10    11    1
    37     9     4   ar
    38    26    22    1
    39    39    34   ar
    40    24    27    1
    41    31    32    1
@<TRIPOS>MOLECULE
*****
 39 41 0 0 0
SMALL
GASTEIGER

@<TRIPOS>ATOM
      1 C          63.1819   85.6967   11.8771 C.2     1  UNL1        0.2491
      2 O          63.2783   87.0442   12.5290 O.2     1  UNL1       -0.2699
      3 N          63.6783   84.4780   12.5969 N.am    1  UNL1       -0.2775
      4 C          60.6389   86.0101    8.8464 C.ar    1  UNL1        0.1723
      5 C          61.2318   86.1388   10.2181 C.ar    1  UNL1        0.0446
      6 C          62.5890   85.5680   10.5052 C.ar    1  UNL1        0.0568
      7 C          63.3532   84.8685    9.4205 C.ar    1  UNL1        0.0078
      8 C          62.7603   84.7398    8.0487 C.ar    1  UNL1        0.0402
      9 C          61.4031   85.3106    7.7616 C.ar    1  UNL1        0.1724
     10 O          60.8102   85.1819    6.3898 O.3     1  UNL1       -0.4684
     11 C          61.3803   84.1934    5.4161 C.3     1  UNL1        0.2526
     12 O          59.2818   86.5809    8.5593 O.3     1  UNL1       -0.4723
     13 C          59.1544   87.9637    7.9923 C.3     1  UNL1        0.2082
     14 C          60.1671   89.0137    8.3415 C.3     1  UNL1        0.0794
     15 C          60.0795   89.7328    9.6550 C.3     1  UNL1        0.1461
     16 C          59.4912   89.6737   12.1849 C.3     1  UNL1        0.1741
     17 O          59.8676   88.9578   10.9216 O.3     1  UNL1       -0.3510
     18 C          63.5818   83.1305   11.9449 C.3     1  UNL1        0.0757
     19 C          64.6993   82.6366   11.0747 C.3     1  UNL1        0.0215
     20 C          62.3678   82.2769   12.1632 C.3     1  UNL1        0.0215
     21 C          64.2712   84.6067   13.9687 C.3     1  UNL1        0.0986
     22 C          63.4269   85.0963   15.1078 C.3     1  UNL1        0.0771
     23 C          62.3071   84.3431   15.7626 C.3     1  UNL1        0.0740
     24 N          61.7423   85.2064   16.8516 N.3     1  UNL1       -0.2943
     25 C          62.5130   86.4931   16.8697 C.3     1  UNL1        0.1129
     26 C          63.5542   86.4250   15.7920 C.3     1  UNL1        0.1890
     27 H          61.8355   84.7343   17.7510 H       1  UNL1        0.1234
     28 O          64.5480   87.4975   15.4574 O.3     1  UNL1       -0.4369
     29 C          64.0750   88.8825   15.1290 C.2     1  UNL1        0.4018
     30 O          63.4840   89.7474   16.2027 O.2     1  UNL1       -0.2264
     31 N          64.1928   89.4027   13.7271 N.am    1  UNL1       -0.2665
     32 H          64.5807   88.8351   13.0224 H       1  UNL1        0.1531
     33 C          63.7197   90.7878   13.3988 C.3     1  UNL1        0.1194
     34 C          64.6365   91.7475   12.6999 C.ar    1  UNL1       -0.0025
     35 C          65.6584   92.5153   13.4849 C.ar    1  UNL1       -0.0026
     36 C          66.5752   93.4750   12.7861 C.ar    1  UNL1       -0.0003
     37 C          66.4700   93.6671   11.3021 C.ar    1  UNL1       -0.0000
     38 C          65.4481   92.8993   10.5170 C.ar    1  UNL1       -0.0003
     39 C          64.5313   91.9395   11.2159 C.ar    1  UNL1       -0.0026
@<TRIPOS>BOND
     1    16    17    1
     2    17    15    1
     3    15    14    1
     4    14    13    1
     5    13    12    1
     6    12     4    1
     7     4     5   ar
     8     5     6   ar
     9     6     1    1
    10     1     2    2
    11     1     3   am
    12     3    21    1
    13    22    21    1
    14    22    23    1
    15    23    24    1
    16    24    25    1
    17    25    26    1
    18    26    28    1
    19    28    29    1
    20    29    30    2
    21    29    31   am
    22    31    33    1
    23    33    34    1
    24    34    35   ar
    25    35    36   ar
    26    36    37   ar
    27    37    38   ar
    28    38    39   ar
    29     3    18    1
    30    18    19    1
    31    18    20    1
    32     6     7   ar
    33     7     8   ar
    34     8     9   ar
    35     9    10    1
    36    10    11    1
    37     9     4   ar
    38    26    22    1
    39    39    34   ar
    40    24    27    1
    41    31    32    1
@<TRIPOS>MOLECULE
*****
 39 41 0 0 0
SMALL
GASTEIGER

@<TRIPOS>ATOM
      1 C          62.6940   88.3206   12.0447 C.2     1  UNL1        0.2491
      2 O          63.2008   86.9850   12.5020 O.2     1  UNL1       -0.2699
      3 N          61.4238   88.4094   11.2517 N.am    1  UNL1       -0.2775
      4 C          64.5298   91.8161   11.6431 C.ar    1  UNL1        0.1723
      5 C          63.7665   90.5692   11.3075 C.ar    1  UNL1        0.0446
      6 C          63.4573   89.5675   12.3803 C.ar    1  UNL1        0.0568
      7 C          63.9112   89.8127   13.7888 C.ar    1  UNL1        0.0078
      8 C          64.6745   91.0596   14.1244 C.ar    1  UNL1        0.0402
      9 C          64.9838   92.0613   13.0516 C.ar    1  UNL1        0.1724
     10 O          65.7471   93.3082   13.3872 O.3     1  UNL1       -0.4684
     11 C          66.5972   93.3577   14.6221 C.3     1  UNL1        0.2526
     12 O          64.8391   92.8178   10.5703 O.3     1  UNL1       -0.4723
     13 C          66.0324   93.7166   10.7049 C.3     1  UNL1        0.2082
     14 C          66.4199   94.6231    9.5743 C.3     1  UNL1        0.0794
     15 C          67.8580   94.7361    9.1628 C.3     1  UNL1        0.1461
     16 C          68.8787   92.3518    9.0112 C.3     1  UNL1        0.1741
     17 O          68.8544   93.7174    9.6312 O.3     1  UNL1       -0.3510
     18 C          60.9169   89.7451   10.7944 C.3     1  UNL1        0.0757
     19 C          61.3449   90.2950    9.4661 C.3     1  UNL1        0.0215
     20 C          59.9821   90.5308   11.6655 C.3     1  UNL1        0.0215
     21 C          60.6605   87.1626   10.9160 C.3     1  UNL1        0.0986
     22 C          60.4913   86.7494    9.4840 C.3     1  UNL1        0.0771
     23 C          59.2785   86.9890    8.6346 C.3     1  UNL1        0.0740
     24 N          59.5428   86.4118    7.2756 N.3     1  UNL1       -0.2943
     25 C          60.9191   85.8153    7.2851 C.3     1  UNL1        0.1129
     26 C          61.5053   86.0240    8.6500 C.3     1  UNL1        0.1890
     27 H          59.4891   87.1471    6.5707 H       1  UNL1        0.1234
     28 O          62.8665   85.5844    9.1015 O.3     1  UNL1       -0.4369
     29 C          63.0025   84.4872   10.1152 C.2     1  UNL1        0.4018
     30 O          62.0003   84.3625   11.2244 O.2     1  UNL1       -0.2264
     31 N          64.1405   83.5147   10.0198 N.am    1  UNL1       -0.2665
     32 H          64.7982   83.5965    9.2918 H       1  UNL1        0.1531
     33 C          64.2764   82.4175   11.0335 C.3     1  UNL1        0.1194
     34 C          63.8002   82.6324   12.4396 C.ar    1  UNL1       -0.0025
     35 C          62.6325   81.8503   12.9638 C.ar    1  UNL1       -0.0026
     36 C          62.1562   82.0651   14.3699 C.ar    1  UNL1       -0.0003
     37 C          62.8478   83.0620   15.2519 C.ar    1  UNL1       -0.0000
     38 C          64.0156   83.8441   14.7277 C.ar    1  UNL1       -0.0003
     39 C          64.4918   83.6293   13.3216 C.ar    1  UNL1       -0.0026
@<TRIPOS>BOND
     1    16    17    1
     2    17    15    1
     3    15    14    1
     4    14    13    1
     5    13    12    1
     6    12     4    1
     7     4     5   ar
     8     5     6   ar
     9     6     1    1
    10     1     2    2
    11     1     3   am
    12     3    21    1
    13    22    21    1
    14    22    23    1
    15    23    24    1
    16    24    25    1
    17    25    26    1
    18    26    28    1
    19    28    29    1
    20    29    30    2
    21    29    31   am
    22    31    33    1
    23    33    34    1
    24    34    35   ar
    25    35    36   ar
    26    36    37   ar
    27    37    38   ar
    28    38    39   ar
    29     3    18    1
    30    18    19    1
    31    18    20    1
    32     6     7   ar
    33     7     8   ar
    34     8     9   ar
    35     9    10    1
    36    10    11    1
    37     9     4   ar
    38    26    22    1
    39    39    34   ar
    40    24    27    1
    41    31    32    1
@<TRIPOS>MOLECULE
*****
 39 41 0 0 0
SMALL
GASTEIGER

@<TRIPOS>ATOM
      1 C          61.9077   87.3205   11.5402 C.2     1  UNL1        0.2491
      2 O          62.2467   86.4419   12.7077 O.2     1  UNL1       -0.2699
      3 N          61.7478   88.7990   11.7358 N.am    1  UNL1       -0.2775
      4 C          60.2898   86.3774    8.0412 C.ar    1  UNL1        0.1723
      5 C          60.4689   86.9773    9.4043 C.ar    1  UNL1        0.0446
      6 C          61.7286   86.7205   10.1771 C.ar    1  UNL1        0.0568
      7 C          62.8092   85.8638    9.5868 C.ar    1  UNL1        0.0078
      8 C          62.6301   85.2639    8.2238 C.ar    1  UNL1        0.0402
      9 C          61.3704   85.5207    7.4510 C.ar    1  UNL1        0.1724
     10 O          61.1913   84.9207    6.0878 O.3     1  UNL1       -0.4684
     11 C          62.3266   84.1889    5.4355 C.3     1  UNL1        0.2526
     12 O          59.0301   86.6341    7.2684 O.3     1  UNL1       -0.4723
     13 C          58.5226   88.0362    7.1058 C.3     1  UNL1        0.2082
     14 C          59.4906   89.1784    7.0144 C.3     1  UNL1        0.0794
     15 C          59.4576   90.0964    5.8285 C.3     1  UNL1        0.1461
     16 C          58.2375   91.9590    4.4898 C.3     1  UNL1        0.1741
     17 O          58.2021   90.8468    5.4956 O.3     1  UNL1       -0.3510
     18 C          61.4087   89.6777   10.5682 C.3     1  UNL1        0.0757
     19 C          62.4734   90.0600    9.5832 C.3     1  UNL1        0.0215
     20 C          60.0050   90.1739   10.3857 C.3     1  UNL1        0.0215
     21 C          61.9268   89.3990   13.0988 C.3     1  UNL1        0.0986
     22 C          63.2851   89.8513   13.5466 C.3     1  UNL1        0.0771
     23 C          64.1762   90.8164   12.8224 C.3     1  UNL1        0.0740
     24 N          65.4326   90.9795   13.6255 N.3     1  UNL1       -0.2943
     25 C          65.3180   90.1152   14.8461 C.3     1  UNL1        0.1129
     26 C          63.9907   89.4179   14.7973 C.3     1  UNL1        0.1890
     27 H          65.5429   91.9552   13.9014 H       1  UNL1        0.1234
     28 O          63.4620   88.4562   15.8198 O.3     1  UNL1       -0.4369
     29 C          63.8744   87.0147   15.7775 C.2     1  UNL1        0.4018
     30 O          63.5281   86.1017   16.9162 O.2     1  UNL1       -0.2264
     31 N          64.6333   86.4860   14.5965 N.am    1  UNL1       -0.2665
     32 H          64.8606   87.0851   13.8492 H       1  UNL1        0.1531
     33 C          65.0457   85.0444   14.5543 C.3     1  UNL1        0.1194
     34 C          64.1354   84.0215   13.9419 C.ar    1  UNL1       -0.0025
     35 C          64.2146   83.7308   12.4725 C.ar    1  UNL1       -0.0026
     36 C          63.3043   82.7079   11.8601 C.ar    1  UNL1       -0.0003
     37 C          62.3147   81.9757   12.7171 C.ar    1  UNL1       -0.0000
     38 C          62.2355   82.2663   14.1867 C.ar    1  UNL1       -0.0003
     39 C          63.1458   83.2893   14.7990 C.ar    1  UNL1       -0.0026
@<TRIPOS>BOND
     1    16    17    1
     2    17    15    1
     3    15    14    1
     4    14    13    1
     5    13    12    1
     6    12     4    1
     7     4     5   ar
     8     5     6   ar
     9     6     1    1
    10     1     2    2
    11     1     3   am
    12     3    21    1
    13    22    21    1
    14    22    23    1
    15    23    24    1
    16    24    25    1
    17    25    26    1
    18    26    28    1
    19    28    29    1
    20    29    30    2
    21    29    31   am
    22    31    33    1
    23    33    34    1
    24    34    35   ar
    25    35    36   ar
    26    36    37   ar
    27    37    38   ar
    28    38    39   ar
    29     3    18    1
    30    18    19    1
    31    18    20    1
    32     6     7   ar
    33     7     8   ar
    34     8     9   ar
    35     9    10    1
    36    10    11    1
    37     9     4   ar
    38    26    22    1
    39    39    34   ar
    40    24    27    1
    41    31    32    1
@<TRIPOS>MOLECULE
*****
 39 41 0 0 0
SMALL
GASTEIGER

@<TRIPOS>ATOM
      1 C          62.2653   85.5353   11.8240 C.2     1  UNL1        0.2491
      2 O          61.9204   85.6061   13.2821 O.2     1  UNL1       -0.2699
      3 N          63.2021   84.4751   11.3256 N.am    1  UNL1       -0.2775
      4 C          61.5600   88.9357    9.9031 C.ar    1  UNL1        0.1723
      5 C          62.1518   87.9464   10.8628 C.ar    1  UNL1        0.0446
      6 C          61.6735   86.5246   10.8643 C.ar    1  UNL1        0.0568
      7 C          60.6034   86.0923    9.9063 C.ar    1  UNL1        0.0078
      8 C          60.0116   87.0816    8.9466 C.ar    1  UNL1        0.0402
      9 C          60.4899   88.5033    8.9451 C.ar    1  UNL1        0.1724
     10 O          59.8980   89.4927    7.9854 O.3     1  UNL1       -0.4684
     11 C          59.1607   89.0109    6.7712 C.3     1  UNL1        0.2526
     12 O          62.0383   90.3574    9.9015 O.3     1  UNL1       -0.4723
     13 C          62.8123   90.8896   11.0710 C.3     1  UNL1        0.2082
     14 C          64.0898   91.6425   10.8448 C.3     1  UNL1        0.0794
     15 C          64.9272   92.0673   12.0146 C.3     1  UNL1        0.1461
     16 C          66.2779   94.2729   11.7683 C.3     1  UNL1        0.1741
     17 O          66.2306   92.7738   11.7867 O.3     1  UNL1       -0.3510
     18 C          63.5471   84.4043    9.8675 C.3     1  UNL1        0.0757
     19 C          63.1624   85.5272    8.9504 C.3     1  UNL1        0.0215
     20 C          64.2767   83.2106    9.3265 C.3     1  UNL1        0.0215
     21 C          63.7940   83.4858   12.2852 C.3     1  UNL1        0.0986
     22 C          63.1385   82.1517   12.4864 C.3     1  UNL1        0.0771
     23 C          63.2276   80.9766   11.5583 C.3     1  UNL1        0.0740
     24 N          62.4230   79.8571   12.1494 N.3     1  UNL1       -0.2943
     25 C          61.8367   80.3402   13.4427 C.3     1  UNL1        0.1129
     26 C          62.2789   81.7583   13.6510 C.3     1  UNL1        0.1890
     27 H          63.0248   79.0517   12.3216 H       1  UNL1        0.1234
     28 O          61.9238   82.6301   14.8189 O.3     1  UNL1       -0.4369
     29 C          62.9598   83.5285   15.4266 C.2     1  UNL1        0.4018
     30 O          64.3563   83.0250   15.6416 O.2     1  UNL1       -0.2264
     31 N          62.5994   84.9306   15.8194 N.am    1  UNL1       -0.2665
     32 H          61.6828   85.2612   15.6783 H       1  UNL1        0.1531
     33 C          63.6355   85.8291   16.4271 C.3     1  UNL1        0.1194
     34 C          63.6967   87.2757   16.0352 C.ar    1  UNL1       -0.0025
     35 C          64.3522   87.6766   14.7469 C.ar    1  UNL1       -0.0026
     36 C          64.4135   89.1232   14.3549 C.ar    1  UNL1       -0.0003
     37 C          63.8193   90.1689   15.2513 C.ar    1  UNL1       -0.0000
     38 C          63.1638   89.7680   16.5396 C.ar    1  UNL1       -0.0003
     39 C          63.1025   88.3214   16.9315 C.ar    1  UNL1       -0.0026
@<TRIPOS>BOND
     1    16    17    1
     2    17    15    1
     3    15    14    1
     4    14    13    1
     5    13    12    1
     6    12     4    1
     7     4     5   ar
     8     5     6   ar
     9     6     1    1
    10     1     2    2
    11     1     3   am
    12     3    21    1
    13    22    21    1
    14    22    23    1
    15    23    24    1
    16    24    25    1
    17    25    26    1
    18    26    28    1
    19    28    29    1
    20    29    30    2
    21    29    31   am
    22    31    33    1
    23    33    34    1
    24    34    35   ar
    25    35    36   ar
    26    36    37   ar
    27    37    38   ar
    28    38    39   ar
    29     3    18    1
    30    18    19    1
    31    18    20    1
    32     6     7   ar
    33     7     8   ar
    34     8     9   ar
    35     9    10    1
    36    10    11    1
    37     9     4   ar
    38    26    22    1
    39    39    34   ar
    40    24    27    1
    41    31    32    1
@<TRIPOS>MOLECULE
*****
 39 41 0 0 0
SMALL
GASTEIGER

@<TRIPOS>ATOM
      1 C          65.1050   85.3563   14.6787 C.2     1  UNL1        0.2491
      2 O          66.5932   85.1847   14.6030 O.2     1  UNL1       -0.2699
      3 N          64.1988   84.2284   14.2829 N.am    1  UNL1       -0.2775
      4 C          64.0724   89.1870   14.7760 C.ar    1  UNL1        0.1723
      5 C          64.6545   87.8875   14.3044 C.ar    1  UNL1        0.0446
      6 C          64.5229   86.6559   15.1504 C.ar    1  UNL1        0.0568
      7 C          63.8094   86.7238   16.4680 C.ar    1  UNL1        0.0078
      8 C          63.2274   88.0233   16.9396 C.ar    1  UNL1        0.0402
      9 C          63.3589   89.2549   16.0936 C.ar    1  UNL1        0.1724
     10 O          62.7768   90.5545   16.5652 O.3     1  UNL1       -0.4684
     11 C          63.6758   91.7242   16.8369 C.3     1  UNL1        0.2526
     12 O          64.2040   90.4187   13.9299 O.3     1  UNL1       -0.4723
     13 C          65.5145   91.1452   13.8615 C.3     1  UNL1        0.2082
     14 C          65.6175   92.4367   13.1056 C.3     1  UNL1        0.0794
     15 C          66.5569   93.5077   13.5754 C.3     1  UNL1        0.1461
     16 C          68.0634   93.5277   15.6919 C.3     1  UNL1        0.1741
     17 O          67.8369   93.1342   14.2623 O.3     1  UNL1       -0.3510
     18 C          62.7105   84.4001   14.3587 C.3     1  UNL1        0.0757
     19 C          61.9448   83.8093   15.5053 C.3     1  UNL1        0.0215
     20 C          61.9880   85.1627   13.2879 C.3     1  UNL1        0.0215
     21 C          64.7808   82.9289   13.8113 C.3     1  UNL1        0.0986
     22 C          63.9922   82.0435   12.8925 C.3     1  UNL1        0.0771
     23 C          63.2834   80.7794   13.2795 C.3     1  UNL1        0.0740
     24 N          62.6271   80.2214   12.0515 N.3     1  UNL1       -0.2943
     25 C          62.9302   81.1406   10.9056 C.3     1  UNL1        0.1129
     26 C          63.7739   82.2667   11.4253 C.3     1  UNL1        0.1890
     27 H          61.6185   80.1656   12.1931 H       1  UNL1        0.1234
     28 O          64.3058   83.4145   10.6194 O.3     1  UNL1       -0.4369
     29 C          63.3619   84.2993    9.8605 C.2     1  UNL1        0.4018
     30 O          63.4594   84.3936    8.3666 O.2     1  UNL1       -0.2264
     31 N          62.3204   85.0900   10.5954 N.am    1  UNL1       -0.2665
     32 H          62.2563   85.0282   11.5759 H       1  UNL1        0.1531
     33 C          61.3764   85.9748    9.8365 C.3     1  UNL1        0.1194
     34 C          61.3706   87.4540   10.0858 C.ar    1  UNL1       -0.0025
     35 C          60.2698   88.3047    9.5252 C.ar    1  UNL1       -0.0026
     36 C          60.2639   89.7839    9.7746 C.ar    1  UNL1       -0.0003
     37 C          61.3589   90.4122   10.5845 C.ar    1  UNL1       -0.0000
     38 C          62.4598   89.5614   11.1452 C.ar    1  UNL1       -0.0003
     39 C          62.4656   88.0823   10.8958 C.ar    1  UNL1       -0.0026
@<TRIPOS>BOND
     1    16    17    1
     2    17    15    1
     3    15    14    1
     4    14    13    1
     5    13    12    1
     6    12     4    1
     7     4     5   ar
     8     5     6   ar
     9     6     1    1
    10     1     2    2
    11     1     3   am
    12     3    21    1
    13    22    21    1
    14    22    23    1
    15    23    24    1
    16    24    25    1
    17    25    26    1
    18    26    28    1
    19    28    29    1
    20    29    30    2
    21    29    31   am
    22    31    33    1
    23    33    34    1
    24    34    35   ar
    25    35    36   ar
    26    36    37   ar
    27    37    38   ar
    28    38    39   ar
    29     3    18    1
    30    18    19    1
    31    18    20    1
    32     6     7   ar
    33     7     8   ar
    34     8     9   ar
    35     9    10    1
    36    10    11    1
    37     9     4   ar
    38    26    22    1
    39    39    34   ar
    40    24    27    1
    41    31    32    1
@<TRIPOS>MOLECULE
*****
 39 41 0 0 0
SMALL
GASTEIGER

@<TRIPOS>ATOM
      1 C          62.9266   86.1061   11.0983 C.2     1  UNL1        0.2491
      2 O          63.3801   86.8789   12.3013 O.2     1  UNL1       -0.2699
      3 N          62.4081   86.8318    9.8923 N.am    1  UNL1       -0.2775
      4 C          62.2869   82.3268   12.1270 C.ar    1  UNL1        0.1723
      5 C          62.2218   83.8254   12.1240 C.ar    1  UNL1        0.0446
      6 C          62.9917   84.6074   11.1014 C.ar    1  UNL1        0.0568
      7 C          63.8266   83.8909   10.0818 C.ar    1  UNL1        0.0078
      8 C          63.8917   82.3924   10.0849 C.ar    1  UNL1        0.0402
      9 C          63.1218   81.6103   11.1075 C.ar    1  UNL1        0.1724
     10 O          63.1869   80.1117   11.1105 O.3     1  UNL1       -0.4684
     11 C          62.8207   79.3426    9.8758 C.3     1  UNL1        0.2526
     12 O          61.5170   81.5448   13.1496 O.3     1  UNL1       -0.4723
     13 C          61.7842   81.7538   14.6107 C.3     1  UNL1        0.2082
     14 C          62.8004   82.7658   15.0501 C.3     1  UNL1        0.0794
     15 C          62.3531   84.0727   15.6350 C.3     1  UNL1        0.1461
     16 C          64.5658   85.2774   15.0006 C.3     1  UNL1        0.1741
     17 O          63.0998   85.3331   15.3132 O.3     1  UNL1       -0.3510
     18 C          61.9546   86.0589    8.6894 C.3     1  UNL1        0.0757
     19 C          62.9624   85.3770    7.8123 C.3     1  UNL1        0.0215
     20 C          60.4932   85.9679    8.3635 C.3     1  UNL1        0.0215
     21 C          62.3430   88.3303    9.8893 C.3     1  UNL1        0.0986
     22 C          61.2840   89.0367   10.6827 C.3     1  UNL1        0.0771
     23 C          59.8881   89.3344   10.2214 C.3     1  UNL1        0.0740
     24 N          59.1763   90.0510   11.3304 N.3     1  UNL1       -0.2943
     25 C          60.1323   90.1963   12.4771 C.3     1  UNL1        0.1129
     26 C          61.4349   89.5694   12.0768 C.3     1  UNL1        0.1890
     27 H          58.3622   89.5116   11.6247 H       1  UNL1        0.1234
     28 O          62.6714   89.4893   12.9222 O.3     1  UNL1       -0.4369
     29 C          63.4945   90.7194   13.1657 C.2     1  UNL1        0.4018
     30 O          63.5182   91.3486   14.5272 O.2     1  UNL1       -0.2264
     31 N          64.2939   91.3204   12.0478 N.am    1  UNL1       -0.2665
     32 H          64.2784   90.9075   11.1542 H       1  UNL1        0.1531
     33 C          65.1170   92.5505   12.2914 C.3     1  UNL1        0.1194
     34 C          66.0174   93.0762   11.2130 C.ar    1  UNL1       -0.0025
     35 C          67.1171   92.2141   10.6677 C.ar    1  UNL1       -0.0026
     36 C          68.0175   92.7397    9.5892 C.ar    1  UNL1       -0.0003
     37 C          67.8182   94.1275    9.0561 C.ar    1  UNL1       -0.0000
     38 C          66.7184   94.9897    9.6015 C.ar    1  UNL1       -0.0003
     39 C          65.8180   94.4640   10.6799 C.ar    1  UNL1       -0.0026
@<TRIPOS>BOND
     1    16    17    1
     2    17    15    1
     3    15    14    1
     4    14    13    1
     5    13    12    1
     6    12     4    1
     7     4     5   ar
     8     5     6   ar
     9     6     1    1
    10     1     2    2
    11     1     3   am
    12     3    21    1
    13    22    21    1
    14    22    23    1
    15    23    24    1
    16    24    25    1
    17    25    26    1
    18    26    28    1
    19    28    29    1
    20    29    30    2
    21    29    31   am
    22    31    33    1
    23    33    34    1
    24    34    35   ar
    25    35    36   ar
    26    36    37   ar
    27    37    38   ar
    28    38    39   ar
    29     3    18    1
    30    18    19    1
    31    18    20    1
    32     6     7   ar
    33     7     8   ar
    34     8     9   ar
    35     9    10    1
    36    10    11    1
    37     9     4   ar
    38    26    22    1
    39    39    34   ar
    40    24    27    1
    41    31    32    1
@<TRIPOS>MOLECULE
*****
 39 41 0 0 0
SMALL
GASTEIGER

@<TRIPOS>ATOM
      1 C          65.0182   85.1858   14.4593 C.2     1  UNL1        0.2491
      2 O          66.4731   84.8551   14.6143 O.2     1  UNL1       -0.2699
      3 N          64.0922   84.2058   13.8019 N.am    1  UNL1       -0.2775
      4 C          64.1487   89.0533   14.6501 C.ar    1  UNL1        0.1723
      5 C          64.6775   87.7425   14.1479 C.ar    1  UNL1        0.0446
      6 C          64.4894   86.4965   14.9616 C.ar    1  UNL1        0.0568
      7 C          63.7724   86.5613   16.2775 C.ar    1  UNL1        0.0078
      8 C          63.2436   87.8720   16.7798 C.ar    1  UNL1        0.0402
      9 C          63.4317   89.1180   15.9661 C.ar    1  UNL1        0.1724
     10 O          62.9029   90.4288   16.4684 O.3     1  UNL1       -0.4684
     11 C          63.8415   91.5740   16.7078 C.3     1  UNL1        0.2526
     12 O          64.3368   90.2993   13.8364 O.3     1  UNL1       -0.4723
     13 C          63.2608   90.7484   12.8928 C.3     1  UNL1        0.2082
     14 C          63.5443   90.8443   11.4230 C.3     1  UNL1        0.0794
     15 C          64.4367   91.9309   10.9006 C.3     1  UNL1        0.1461
     16 C          66.5941   92.5979   12.1852 C.3     1  UNL1        0.1741
     17 O          65.1507   92.8396   11.8569 O.3     1  UNL1       -0.3510
     18 C          62.6373   84.5365   13.6469 C.3     1  UNL1        0.0757
     19 C          62.1394   85.1501   12.3720 C.3     1  UNL1        0.0215
     20 C          61.6804   84.2537   14.7669 C.3     1  UNL1        0.0215
     21 C          64.6210   82.8950   13.2996 C.3     1  UNL1        0.0986
     22 C          63.6834   81.7475   13.0674 C.3     1  UNL1        0.0771
     23 C          62.9211   81.0041   14.1240 C.3     1  UNL1        0.0740
     24 N          62.1100   79.9389   13.4474 N.3     1  UNL1       -0.2943
     25 C          62.3711   80.0240   11.9728 C.3     1  UNL1        0.1129
     26 C          63.3435   81.1418   11.7380 C.3     1  UNL1        0.1890
     27 H          61.1183   80.0890   13.6326 H       1  UNL1        0.1234
     28 O          63.8814   81.5773   10.4072 O.3     1  UNL1       -0.4369
     29 C          64.0391   83.0377   10.1035 C.2     1  UNL1        0.4018
     30 O          65.1734   83.8112   10.7078 O.2     1  UNL1       -0.2264
     31 N          63.0626   83.7247    9.1955 N.am    1  UNL1       -0.2665
     32 H          62.3182   83.2170    8.7989 H       1  UNL1        0.1531
     33 C          63.2204   85.1851    8.8918 C.3     1  UNL1        0.1194
     34 C          62.0075   86.0507    8.7199 C.ar    1  UNL1       -0.0025
     35 C          61.9040   87.3521    9.4586 C.ar    1  UNL1       -0.0026
     36 C          60.6911   88.2178    9.2867 C.ar    1  UNL1       -0.0003
     37 C          59.5816   87.7820    8.3761 C.ar    1  UNL1       -0.0000
     38 C          59.6851   86.4805    7.6374 C.ar    1  UNL1       -0.0003
     39 C          60.8980   85.6149    7.8093 C.ar    1  UNL1       -0.0026
@<TRIPOS>BOND
     1    16    17    1
     2    17    15    1
     3    15    14    1
     4    14    13    1
     5    13    12    1
     6    12     4    1
     7     4     5   ar
     8     5     6   ar
     9     6     1    1
    10     1     2    2
    11     1     3   am
    12     3    21    1
    13    22    21    1
    14    22    23    1
    15    23    24    1
    16    24    25    1
    17    25    26    1
    18    26    28    1
    19    28    29    1
    20    29    30    2
    21    29    31   am
    22    31    33    1
    23    33    34    1
    24    34    35   ar
    25    35    36   ar
    26    36    37   ar
    27    37    38   ar
    28    38    39   ar
    29     3    18    1
    30    18    19    1
    31    18    20    1
    32     6     7   ar
    33     7     8   ar
    34     8     9   ar
    35     9    10    1
    36    10    11    1
    37     9     4   ar
    38    26    22    1
    39    39    34   ar
    40    24    27    1
    41    31    32    1
