@<TRIPOS>MOLECULE
*****
 27 29 0 0 0
SMALL
GASTEIGER

@<TRIPOS>ATOM
      1 C          64.9873   91.9753   11.9286 C.ar    1  UNL1        0.0005
      2 C          64.4546   91.1903   13.0906 C.ar    1  UNL1       -0.0011
      3 C          63.2020   90.3796   12.9368 C.ar    1  UNL1        0.0143
      4 C          62.4820   90.3539   11.6211 C.ar    1  UNL1        0.0483
      5 C          63.0147   91.1388   10.4592 C.ar    1  UNL1        0.0143
      6 C          64.2673   91.9495   10.6130 C.ar    1  UNL1       -0.0011
      7 N          61.2294   89.5431   11.4674 N.pl3   1  UNL1       -0.3125
      8 H          60.4475   89.7328   12.0349 H       1  UNL1        0.1522
      9 C          61.1680   88.4433   10.4493 C.ar    1  UNL1        0.0483
     10 C          60.1787   88.5173    9.3241 C.ar    1  UNL1        0.0146
     11 C          60.1174   87.4175    8.3059 C.ar    1  UNL1        0.0013
     12 C          61.0452   86.2438    8.4128 C.ar    1  UNL1        0.0001
     13 C          62.0345   86.1698    9.5380 C.ar    1  UNL1        0.0013
     14 C          62.0959   87.2696   10.5562 C.ar    1  UNL1        0.0146
     15 C          66.2399   92.7860   12.0823 C.3     1  UNL1        0.1390
     16 N          66.9593   92.8127   13.3983 N.ar    1  UNL1       -0.2273
     17 C          66.5016   93.5206   14.6391 C.ar    1  UNL1        0.1975
     18 N          67.5220   93.2816   15.7123 N.ar    1  UNL1       -0.2007
     19 C          68.6104   92.4260   15.1347 C.ar    1  UNL1        0.2210
     20 N          68.2625   92.1363   13.7047 N.ar    1  UNL1       -0.1449
     21 C          66.7732   93.5700   10.9201 C.3     1  UNL1        0.1141
     22 C          66.0825   94.7991   11.4322 C.3     1  UNL1        0.0134
     23 C          67.4640   92.3410   10.4080 C.3     1  UNL1        0.0134
     24 C          67.3066   94.3540    9.7577 C.2     1  UNL1        0.3182
     25 O          68.7081   94.1220    9.2765 O.2     1  UNL1       -0.2501
     26 C          67.0516   96.3886    8.1623 C.3     1  UNL1        0.2556
     27 O          66.4383   95.3700    9.0767 O.3     1  UNL1       -0.4444
@<TRIPOS>BOND
     1    26    27    1
     2    27    24    1
     3    24    25    2
     4    24    21    1
     5    21    22    1
     6    21    23    1
     7    21    15    1
     8    15     1    1
     9     1     2   ar
    10     2     3   ar
    11     3     4   ar
    12     4     7    1
    13     7     9    1
    14     9    10   ar
    15    10    11   ar
    16    11    12   ar
    17    12    13   ar
    18    13    14   ar
    19     4     5   ar
    20     5     6   ar
    21    15    16    1
    22    16    17   ar
    23    17    18   ar
    24    18    19   ar
    25    19    20   ar
    26     6     1   ar
    27    20    16   ar
    28    14     9   ar
    29     7     8    1
@<TRIPOS>MOLECULE
*****
 27 29 0 0 0
SMALL
GASTEIGER

@<TRIPOS>ATOM
      1 C          65.0387   92.0503   11.8752 C.ar    1  UNL1        0.0005
      2 C          64.4570   91.2614   13.0106 C.ar    1  UNL1       -0.0011
      3 C          63.1905   90.4829   12.8115 C.ar    1  UNL1        0.0143
      4 C          62.5057   90.4932   11.4770 C.ar    1  UNL1        0.0483
      5 C          63.0874   91.2821   10.3416 C.ar    1  UNL1        0.0143
      6 C          64.3539   92.0606   10.5407 C.ar    1  UNL1       -0.0011
      7 N          61.2391   89.7145   11.2780 N.pl3   1  UNL1       -0.3125
      8 H          60.4308   89.9507   11.7879 H       1  UNL1        0.1522
      9 C          61.2042   88.5760   10.3021 C.ar    1  UNL1        0.0483
     10 C          62.3052   87.5573   10.2982 C.ar    1  UNL1        0.0146
     11 C          62.2702   86.4188    9.3222 C.ar    1  UNL1        0.0013
     12 C          61.1342   86.2989    8.3501 C.ar    1  UNL1        0.0001
     13 C          60.0332   87.3175    8.3539 C.ar    1  UNL1        0.0013
     14 C          60.0681   88.4561    9.3299 C.ar    1  UNL1        0.0146
     15 C          66.3053   92.8290   12.0743 C.3     1  UNL1        0.1390
     16 N          66.7242   93.8516   11.0600 N.ar    1  UNL1       -0.2273
     17 C          66.2828   95.2846   11.0185 C.ar    1  UNL1        0.1975
     18 N          66.9439   95.9395    9.8420 N.ar    1  UNL1       -0.2007
     19 C          67.7939   94.9112    9.1563 C.ar    1  UNL1        0.2210
     20 N          67.6582   93.6209    9.9091 N.ar    1  UNL1       -0.1449
     21 C          67.1529   92.5850   13.2875 C.3     1  UNL1        0.1141
     22 C          67.9979   91.6247   12.5041 C.3     1  UNL1        0.0134
     23 C          66.3079   93.5453   14.0709 C.3     1  UNL1        0.0134
     24 C          68.0005   92.3410   14.5009 C.2     1  UNL1        0.3182
     25 O          67.6799   91.2023   15.4231 O.2     1  UNL1       -0.2501
     26 C          69.1906   94.0560   16.0476 C.3     1  UNL1        0.2556
     27 O          69.1687   93.2358   14.7919 O.3     1  UNL1       -0.4444
@<TRIPOS>BOND
     1    26    27    1
     2    27    24    1
     3    24    25    2
     4    24    21    1
     5    21    22    1
     6    21    23    1
     7    21    15    1
     8    15     1    1
     9     1     2   ar
    10     2     3   ar
    11     3     4   ar
    12     4     7    1
    13     7     9    1
    14     9    10   ar
    15    10    11   ar
    16    11    12   ar
    17    12    13   ar
    18    13    14   ar
    19     4     5   ar
    20     5     6   ar
    21    15    16    1
    22    16    17   ar
    23    17    18   ar
    24    18    19   ar
    25    19    20   ar
    26     6     1   ar
    27    20    16   ar
    28    14     9   ar
    29     7     8    1
@<TRIPOS>MOLECULE
*****
 27 29 0 0 0
SMALL
GASTEIGER

@<TRIPOS>ATOM
      1 C          65.1890   91.8178   12.1594 C.ar    1  UNL1        0.0005
      2 C          64.3823   91.8009   10.8950 C.ar    1  UNL1       -0.0011
      3 C          63.0896   91.0420   10.8402 C.ar    1  UNL1        0.0143
      4 C          62.6037   90.3000   12.0498 C.ar    1  UNL1        0.0483
      5 C          63.4104   90.3168   13.3142 C.ar    1  UNL1        0.0143
      6 C          64.7031   91.0757   13.3691 C.ar    1  UNL1       -0.0011
      7 N          61.3109   89.5411   11.9949 N.pl3   1  UNL1       -0.3125
      8 H          60.6519   89.6383   12.7198 H       1  UNL1        0.1522
      9 C          61.0223   88.6342   10.8356 C.ar    1  UNL1        0.0483
     10 C          60.2565   89.1491    9.6530 C.ar    1  UNL1        0.0146
     11 C          59.9679   88.2420    8.4937 C.ar    1  UNL1        0.0013
     12 C          60.4451   86.8202    8.5168 C.ar    1  UNL1        0.0001
     13 C          61.2109   86.3053    9.6994 C.ar    1  UNL1        0.0013
     14 C          61.4995   87.2122   10.8587 C.ar    1  UNL1        0.0146
     15 C          66.4818   92.5767   12.2143 C.3     1  UNL1        0.1390
     16 N          67.1288   93.0487   10.9460 N.ar    1  UNL1       -0.2273
     17 C          67.8783   92.1939    9.9675 C.ar    1  UNL1        0.1975
     18 N          68.3526   93.0753    8.8502 N.ar    1  UNL1       -0.2007
     19 C          67.8962   94.4748    9.1382 C.ar    1  UNL1        0.2210
     20 N          67.1398   94.4584   10.4335 N.ar    1  UNL1       -0.1449
     21 C          67.1274   92.8636   13.5375 C.3     1  UNL1        0.1141
     22 C          67.8778   91.5675   13.4523 C.3     1  UNL1        0.0134
     23 C          66.3771   94.1596   13.6226 C.3     1  UNL1        0.0134
     24 C          67.7731   93.1505   14.8607 C.2     1  UNL1        0.3182
     25 O          69.2681   93.2088   14.9688 O.2     1  UNL1       -0.2501
     26 C          65.8003   92.4375   16.3935 C.3     1  UNL1        0.2556
     27 O          66.9238   93.3792   16.0757 O.3     1  UNL1       -0.4444
@<TRIPOS>BOND
     1    26    27    1
     2    27    24    1
     3    24    25    2
     4    24    21    1
     5    21    22    1
     6    21    23    1
     7    21    15    1
     8    15     1    1
     9     1     2   ar
    10     2     3   ar
    11     3     4   ar
    12     4     7    1
    13     7     9    1
    14     9    10   ar
    15    10    11   ar
    16    11    12   ar
    17    12    13   ar
    18    13    14   ar
    19     4     5   ar
    20     5     6   ar
    21    15    16    1
    22    16    17   ar
    23    17    18   ar
    24    18    19   ar
    25    19    20   ar
    26     6     1   ar
    27    20    16   ar
    28    14     9   ar
    29     7     8    1
@<TRIPOS>MOLECULE
*****
 27 29 0 0 0
SMALL
GASTEIGER

@<TRIPOS>ATOM
      1 C          62.8437   88.8655   11.3125 C.ar    1  UNL1        0.0005
      2 C          63.4786   89.1163   12.6481 C.ar    1  UNL1       -0.0011
      3 C          64.1481   90.4296   12.9255 C.ar    1  UNL1        0.0143
      4 C          64.1827   91.4921   11.8672 C.ar    1  UNL1        0.0483
      5 C          63.5478   91.2413   10.5316 C.ar    1  UNL1        0.0143
      6 C          62.8783   89.9280   10.2542 C.ar    1  UNL1       -0.0011
      7 N          64.8523   92.8054   12.1446 N.pl3   1  UNL1       -0.3125
      8 H          64.6314   93.3076   12.9621 H       1  UNL1        0.1522
      9 C          65.8584   93.3536   11.1766 C.ar    1  UNL1        0.0483
     10 C          65.8230   94.8050   10.7995 C.ar    1  UNL1        0.0146
     11 C          66.8292   95.3532    9.8314 C.ar    1  UNL1        0.0013
     12 C          67.8707   94.4500    9.2403 C.ar    1  UNL1        0.0001
     13 C          67.9060   92.9985    9.6173 C.ar    1  UNL1        0.0013
     14 C          66.8999   92.4504   10.5854 C.ar    1  UNL1        0.0146
     15 C          62.1741   87.5522   11.0351 C.3     1  UNL1        0.1390
     16 N          62.5323   86.3418   11.8454 N.ar    1  UNL1       -0.2273
     17 C          62.1884   84.9213   11.5078 C.ar    1  UNL1        0.1975
     18 N          62.7408   84.0410   12.5894 N.ar    1  UNL1       -0.2007
     19 C          63.4261   84.9174   13.5955 C.ar    1  UNL1        0.2210
     20 N          63.2972   86.3394   13.1357 N.ar    1  UNL1       -0.1449
     21 C          61.1464   87.4493    9.9473 C.3     1  UNL1        0.1141
     22 C          60.1094   88.0115   10.8739 C.3     1  UNL1        0.0134
     23 C          62.1834   86.8871    9.0208 C.3     1  UNL1        0.0134
     24 C          60.1187   87.3464    8.8595 C.2     1  UNL1        0.3182
     25 O          59.8798   86.0331    8.1752 O.2     1  UNL1       -0.2501
     26 C          59.3716   89.0404    7.0369 C.3     1  UNL1        0.2556
     27 O          59.3298   88.5567    8.4561 O.3     1  UNL1       -0.4444
@<TRIPOS>BOND
     1    26    27    1
     2    27    24    1
     3    24    25    2
     4    24    21    1
     5    21    22    1
     6    21    23    1
     7    21    15    1
     8    15     1    1
     9     1     2   ar
    10     2     3   ar
    11     3     4   ar
    12     4     7    1
    13     7     9    1
    14     9    10   ar
    15    10    11   ar
    16    11    12   ar
    17    12    13   ar
    18    13    14   ar
    19     4     5   ar
    20     5     6   ar
    21    15    16    1
    22    16    17   ar
    23    17    18   ar
    24    18    19   ar
    25    19    20   ar
    26     6     1   ar
    27    20    16   ar
    28    14     9   ar
    29     7     8    1
@<TRIPOS>MOLECULE
*****
 27 29 0 0 0
SMALL
GASTEIGER

@<TRIPOS>ATOM
      1 C          62.8958   88.6820   11.5831 C.ar    1  UNL1        0.0005
      2 C          63.5409   88.7698   12.9344 C.ar    1  UNL1       -0.0011
      3 C          64.2138   90.0400   13.3631 C.ar    1  UNL1        0.0143
      4 C          64.2416   91.2223   12.4405 C.ar    1  UNL1        0.0483
      5 C          63.5964   91.1346   11.0892 C.ar    1  UNL1        0.0143
      6 C          62.9235   89.8644   10.6605 C.ar    1  UNL1       -0.0011
      7 N          64.9145   92.4926   12.8693 N.pl3   1  UNL1       -0.3125
      8 H          64.5979   93.3583   12.5235 H       1  UNL1        0.1522
      9 C          66.0697   92.4437   13.8248 C.ar    1  UNL1        0.0483
     10 C          65.8548   92.7492   15.2776 C.ar    1  UNL1        0.0146
     11 C          67.0101   92.7003   16.2331 C.ar    1  UNL1        0.0013
     12 C          68.3802   92.3460   15.7359 C.ar    1  UNL1        0.0001
     13 C          68.5951   92.0405   14.2831 C.ar    1  UNL1        0.0013
     14 C          67.4399   92.0894   13.3276 C.ar    1  UNL1        0.0146
     15 C          62.2228   87.4118   11.1544 C.3     1  UNL1        0.1390
     16 N          62.5602   86.1179   11.8342 N.ar    1  UNL1       -0.2273
     17 C          62.3068   84.7435   11.2895 C.ar    1  UNL1        0.1975
     18 N          62.8001   83.7474   12.2967 N.ar    1  UNL1       -0.2007
     19 C          63.3585   84.5063   13.4639 C.ar    1  UNL1        0.2210
     20 N          63.2102   85.9713   13.1780 N.ar    1  UNL1       -0.1449
     21 C          61.2126   87.4355   10.0459 C.3     1  UNL1        0.1141
     22 C          62.2413   86.8960    9.0968 C.3     1  UNL1        0.0134
     23 C          60.1839   87.9749   10.9949 C.3     1  UNL1        0.0134
     24 C          60.2023   87.4592    8.9373 C.2     1  UNL1        0.3182
     25 O          59.8343   86.1883    8.2307 O.2     1  UNL1       -0.2501
     26 C          59.4483   89.1170    7.0845 C.3     1  UNL1        0.2556
     27 O          59.5600   88.7538    8.5355 O.3     1  UNL1       -0.4444
@<TRIPOS>BOND
     1    26    27    1
     2    27    24    1
     3    24    25    2
     4    24    21    1
     5    21    22    1
     6    21    23    1
     7    21    15    1
     8    15     1    1
     9     1     2   ar
    10     2     3   ar
    11     3     4   ar
    12     4     7    1
    13     7     9    1
    14     9    10   ar
    15    10    11   ar
    16    11    12   ar
    17    12    13   ar
    18    13    14   ar
    19     4     5   ar
    20     5     6   ar
    21    15    16    1
    22    16    17   ar
    23    17    18   ar
    24    18    19   ar
    25    19    20   ar
    26     6     1   ar
    27    20    16   ar
    28    14     9   ar
    29     7     8    1
@<TRIPOS>MOLECULE
*****
 27 29 0 0 0
SMALL
GASTEIGER

@<TRIPOS>ATOM
      1 C          63.3599   88.2718   12.7193 C.ar    1  UNL1        0.0005
      2 C          62.9082   87.0160   12.0345 C.ar    1  UNL1       -0.0011
      3 C          63.2164   85.6789   12.6404 C.ar    1  UNL1        0.0143
      4 C          63.9763   85.5976   13.9311 C.ar    1  UNL1        0.0483
      5 C          64.4280   86.8534   14.6159 C.ar    1  UNL1        0.0143
      6 C          64.1198   88.1904   14.0100 C.ar    1  UNL1       -0.0011
      7 N          64.2846   84.2604   14.5370 N.pl3   1  UNL1       -0.3125
      8 H          64.9686   84.1849   15.2411 H       1  UNL1        0.1522
      9 C          63.5506   83.0384   14.0702 C.ar    1  UNL1        0.0483
     10 C          64.1088   82.2100   12.9512 C.ar    1  UNL1        0.0146
     11 C          63.3748   80.9879   12.4844 C.ar    1  UNL1        0.0013
     12 C          62.0827   80.5943   13.1367 C.ar    1  UNL1        0.0001
     13 C          61.5246   81.4226   14.2557 C.ar    1  UNL1        0.0013
     14 C          62.2585   82.6447   14.7225 C.ar    1  UNL1        0.0146
     15 C          63.0516   89.6089   12.1135 C.3     1  UNL1        0.1390
     16 N          63.9393   90.7840   12.3985 N.ar    1  UNL1       -0.2273
     17 C          64.3894   91.2405   13.7546 C.ar    1  UNL1        0.1975
     18 N          65.2610   92.4476   13.5718 N.ar    1  UNL1       -0.2007
     19 C          65.3494   92.7371   12.1027 C.ar    1  UNL1        0.2210
     20 N          64.5326   91.7090   11.3776 N.ar    1  UNL1       -0.1449
     21 C          61.8558   89.7710   11.2225 C.3     1  UNL1        0.1141
     22 C          60.9678   89.8494   12.4288 C.3     1  UNL1        0.0134
     23 C          62.7439   89.6925   10.0163 C.3     1  UNL1        0.0134
     24 C          60.6600   89.9330   10.3315 C.2     1  UNL1        0.3182
     25 O          59.5048   90.7815   10.7736 O.2     1  UNL1       -0.2501
     26 C          59.8570   87.9648    8.8378 C.3     1  UNL1        0.2556
     27 O          60.6195   89.2465    8.9985 O.3     1  UNL1       -0.4444
@<TRIPOS>BOND
     1    26    27    1
     2    27    24    1
     3    24    25    2
     4    24    21    1
     5    21    22    1
     6    21    23    1
     7    21    15    1
     8    15     1    1
     9     1     2   ar
    10     2     3   ar
    11     3     4   ar
    12     4     7    1
    13     7     9    1
    14     9    10   ar
    15    10    11   ar
    16    11    12   ar
    17    12    13   ar
    18    13    14   ar
    19     4     5   ar
    20     5     6   ar
    21    15    16    1
    22    16    17   ar
    23    17    18   ar
    24    18    19   ar
    25    19    20   ar
    26     6     1   ar
    27    20    16   ar
    28    14     9   ar
    29     7     8    1
@<TRIPOS>MOLECULE
*****
 27 29 0 0 0
SMALL
GASTEIGER

@<TRIPOS>ATOM
      1 C          62.3180   88.3997   10.7148 C.ar    1  UNL1        0.0005
      2 C          62.9543   88.1722   12.0540 C.ar    1  UNL1       -0.0011
      3 C          63.4999   89.3329   12.8318 C.ar    1  UNL1        0.0143
      4 C          63.4093   90.7210   12.2706 C.ar    1  UNL1        0.0483
      5 C          62.7730   90.9484   10.9314 C.ar    1  UNL1        0.0143
      6 C          62.2273   89.7878   10.1536 C.ar    1  UNL1       -0.0011
      7 N          63.9550   91.8816   13.0485 N.pl3   1  UNL1       -0.3125
      8 H          63.3632   92.6268   13.3011 H       1  UNL1        0.1522
      9 C          65.4023   91.9070   13.4416 C.ar    1  UNL1        0.0483
     10 C          65.7927   91.7224   14.8781 C.ar    1  UNL1        0.0146
     11 C          67.2401   91.7477   15.2711 C.ar    1  UNL1        0.0013
     12 C          68.2970   91.9578   14.2277 C.ar    1  UNL1        0.0001
     13 C          67.9066   92.1424   12.7913 C.ar    1  UNL1        0.0013
     14 C          66.4593   92.1171   12.3982 C.ar    1  UNL1        0.0146
     15 C          61.7723   87.2390    9.9369 C.3     1  UNL1        0.1390
     16 N          60.6592   87.4517    8.9542 N.ar    1  UNL1       -0.2273
     17 C          59.7722   86.3858    8.3823 C.ar    1  UNL1        0.1975
     18 N          58.8025   87.0430    7.4454 N.ar    1  UNL1       -0.2007
     19 C          59.0901   88.5152    7.4383 C.ar    1  UNL1        0.2210
     20 N          60.2376   88.7677    8.3708 N.ar    1  UNL1       -0.1449
     21 C          62.3397   85.8657   10.1417 C.3     1  UNL1        0.1141
     22 C          61.6150   85.7615   11.4508 C.3     1  UNL1        0.0134
     23 C          63.0644   85.9699    8.8326 C.3     1  UNL1        0.0134
     24 C          62.9072   84.4923   10.3464 C.2     1  UNL1        0.3182
     25 O          63.6976   83.8367    9.2531 O.2     1  UNL1       -0.2501
     26 C          62.8416   82.2845   11.7144 C.3     1  UNL1        0.2556
     27 O          62.6842   83.7746   11.6446 O.3     1  UNL1       -0.4444
@<TRIPOS>BOND
     1    26    27    1
     2    27    24    1
     3    24    25    2
     4    24    21    1
     5    21    22    1
     6    21    23    1
     7    21    15    1
     8    15     1    1
     9     1     2   ar
    10     2     3   ar
    11     3     4   ar
    12     4     7    1
    13     7     9    1
    14     9    10   ar
    15    10    11   ar
    16    11    12   ar
    17    12    13   ar
    18    13    14   ar
    19     4     5   ar
    20     5     6   ar
    21    15    16    1
    22    16    17   ar
    23    17    18   ar
    24    18    19   ar
    25    19    20   ar
    26     6     1   ar
    27    20    16   ar
    28    14     9   ar
    29     7     8    1
@<TRIPOS>MOLECULE
*****
 27 29 0 0 0
SMALL
GASTEIGER

@<TRIPOS>ATOM
      1 C          63.7619   88.0190   13.6475 C.ar    1  UNL1        0.0005
      2 C          63.2127   86.9706   12.7261 C.ar    1  UNL1       -0.0011
      3 C          63.5071   85.5216   12.9785 C.ar    1  UNL1        0.0143
      4 C          64.3507   85.1211   14.1523 C.ar    1  UNL1        0.0483
      5 C          64.8999   86.1695   15.0737 C.ar    1  UNL1        0.0143
      6 C          64.6056   87.6185   14.8213 C.ar    1  UNL1       -0.0011
      7 N          64.6451   83.6720   14.4047 N.pl3   1  UNL1       -0.3125
      8 H          65.4816   83.4105   14.8531 H       1  UNL1        0.1522
      9 C          63.6649   82.6215   13.9739 C.ar    1  UNL1        0.0483
     10 C          62.3772   82.4449   14.7227 C.ar    1  UNL1        0.0146
     11 C          61.3971   81.3943   14.2919 C.ar    1  UNL1        0.0013
     12 C          61.7046   80.5203   13.1123 C.ar    1  UNL1        0.0001
     13 C          62.9923   80.6969   12.3635 C.ar    1  UNL1        0.0013
     14 C          63.9724   81.7474   12.7942 C.ar    1  UNL1        0.0146
     15 C          63.4675   89.4681   13.3951 C.3     1  UNL1        0.1390
     16 N          62.6997   89.8755   12.1726 N.ar    1  UNL1       -0.2273
     17 C          61.2059   89.9210   12.0441 C.ar    1  UNL1        0.1975
     18 N          60.8738   90.3826   10.6561 N.ar    1  UNL1       -0.2007
     19 C          62.1624   90.6225    9.9267 C.ar    1  UNL1        0.2210
     20 N          63.2908   90.3091   10.8639 N.ar    1  UNL1       -0.1449
     21 C          63.9410   90.5096   14.3651 C.3     1  UNL1        0.1141
     22 C          64.9300   91.0040   13.3516 C.3     1  UNL1        0.0134
     23 C          62.9520   90.0152   15.3787 C.3     1  UNL1        0.0134
     24 C          64.4144   91.5512   15.3352 C.2     1  UNL1        0.3182
     25 O          63.6923   91.7489   16.6350 O.2     1  UNL1       -0.2501
     26 C          66.6326   92.6920   16.0619 C.3     1  UNL1        0.2556
     27 O          65.6100   92.3949   15.0055 O.3     1  UNL1       -0.4444
@<TRIPOS>BOND
     1    26    27    1
     2    27    24    1
     3    24    25    2
     4    24    21    1
     5    21    22    1
     6    21    23    1
     7    21    15    1
     8    15     1    1
     9     1     2   ar
    10     2     3   ar
    11     3     4   ar
    12     4     7    1
    13     7     9    1
    14     9    10   ar
    15    10    11   ar
    16    11    12   ar
    17    12    13   ar
    18    13    14   ar
    19     4     5   ar
    20     5     6   ar
    21    15    16    1
    22    16    17   ar
    23    17    18   ar
    24    18    19   ar
    25    19    20   ar
    26     6     1   ar
    27    20    16   ar
    28    14     9   ar
    29     7     8    1
@<TRIPOS>MOLECULE
*****
 27 29 0 0 0
SMALL
GASTEIGER

@<TRIPOS>ATOM
      1 C          62.5817   87.4263   11.0049 C.ar    1  UNL1        0.0005
      2 C          63.1675   87.6306   12.3706 C.ar    1  UNL1       -0.0011
      3 C          63.4803   89.0160   12.8528 C.ar    1  UNL1        0.0143
      4 C          63.2074   90.1972   11.9694 C.ar    1  UNL1        0.0483
      5 C          62.6217   89.9929   10.6038 C.ar    1  UNL1        0.0143
      6 C          62.3088   88.6074   10.1215 C.ar    1  UNL1       -0.0011
      7 N          63.5203   91.5827   12.4517 N.pl3   1  UNL1       -0.3125
      8 H          62.8405   92.2918   12.3866 H       1  UNL1        0.1522
      9 C          64.8689   91.8877   13.0333 C.ar    1  UNL1        0.0483
     10 C          65.2125   91.4197   14.4163 C.ar    1  UNL1        0.0146
     11 C          66.5612   91.7247   14.9979 C.ar    1  UNL1        0.0013
     12 C          67.5661   92.4978   14.1964 C.ar    1  UNL1        0.0001
     13 C          67.2225   92.9658   12.8133 C.ar    1  UNL1        0.0013
     14 C          65.8739   92.6608   12.2318 C.ar    1  UNL1        0.0146
     15 C          62.2689   86.0408   10.5226 C.3     1  UNL1        0.1390
     16 N          62.4717   84.8661   11.4330 N.ar    1  UNL1       -0.2273
     17 C          62.9215   83.4965   11.0183 C.ar    1  UNL1        0.1975
     18 N          62.9882   82.6386   12.2470 N.ar    1  UNL1       -0.2007
     19 C          62.5797   83.4780   13.4211 C.ar    1  UNL1        0.2210
     20 N          62.2605   84.8546   12.9180 N.ar    1  UNL1       -0.1449
     21 C          61.7532   85.8301    9.1299 C.3     1  UNL1        0.1141
     22 C          63.1253   85.4198    8.6839 C.3     1  UNL1        0.0134
     23 C          60.3810   86.2403    9.5760 C.3     1  UNL1        0.0134
     24 C          61.2374   85.6193    7.7372 C.2     1  UNL1        0.3182
     25 O          59.8126   85.9522    7.4067 O.2     1  UNL1       -0.2501
     26 C          61.6040   84.1538    5.6235 C.3     1  UNL1        0.2556
     27 O          62.1464   85.0757    6.6750 O.3     1  UNL1       -0.4444
@<TRIPOS>BOND
     1    26    27    1
     2    27    24    1
     3    24    25    2
     4    24    21    1
     5    21    22    1
     6    21    23    1
     7    21    15    1
     8    15     1    1
     9     1     2   ar
    10     2     3   ar
    11     3     4   ar
    12     4     7    1
    13     7     9    1
    14     9    10   ar
    15    10    11   ar
    16    11    12   ar
    17    12    13   ar
    18    13    14   ar
    19     4     5   ar
    20     5     6   ar
    21    15    16    1
    22    16    17   ar
    23    17    18   ar
    24    18    19   ar
    25    19    20   ar
    26     6     1   ar
    27    20    16   ar
    28    14     9   ar
    29     7     8    1
