@<TRIPOS>MOLECULE
*****
 36 40 0 0 0
SMALL
GASTEIGER

@<TRIPOS>ATOM
      1 C          64.1198   89.1695   13.6771 C.ar    1  UNL1        0.1389
      2 C          63.1559   88.3946   12.8285 C.ar    1  UNL1        0.0396
      3 C          62.5125   89.0449   11.6397 C.ar    1  UNL1        0.0343
      4 C          61.5485   88.2698   10.7910 C.ar    1  UNL1        0.0558
      5 C          60.9052   88.9202    9.6023 C.ar    1  UNL1        0.0856
      6 C          61.2258   90.3455    9.2621 C.ar    1  UNL1        0.1045
      7 N          62.1898   91.1205   10.1107 N.ar    1  UNL1       -0.2436
      8 C          62.8331   90.4702   11.2995 C.ar    1  UNL1        0.0827
      9 C          63.7971   91.2451   12.1481 C.ar    1  UNL1        0.0223
     10 C          64.4404   90.5948   13.3369 C.ar    1  UNL1        0.0394
     11 C          65.4044   91.3698   14.1855 C.ar    1  UNL1        0.0526
     12 C          66.7392   91.8957   13.7475 C.ar    1  UNL1        0.1007
     13 C          67.3443   91.7390   12.3840 C.3     1  UNL1        0.0557
     14 N          67.3625   92.6059   14.9125 N.ar    1  UNL1       -0.0817
     15 O          66.4130   92.5190   16.0705 O.2     1  UNL1       -0.3581
     16 C          65.2029   91.7550   15.6212 C.ar    1  UNL1        0.1545
     17 C          64.0020   91.4328   16.4602 C.3     1  UNL1        0.0754
     18 C          59.9412   88.1452    8.7537 C.2     1  UNL1        0.2455
     19 N          59.6120   88.6192    7.3691 N.am    1  UNL1       -0.3252
     20 O          59.3065   86.8962    9.2896 O.2     1  UNL1       -0.2703
     21 H          60.0286   89.4389    7.0174 H       1  UNL1        0.1453
     22 H          58.9793   88.1105    6.8121 H       1  UNL1        0.1453
     23 C          64.6603   87.0349   15.0559 C.3     1  UNL1        0.2525
     24 O          64.7632   88.5192   14.8658 O.3     1  UNL1       -0.4714
     25 N          61.2279   86.8446   11.1312 N.pl3   1  UNL1       -0.3112
     26 H          60.4141   86.6317   11.6427 H       1  UNL1        0.1523
     27 C          62.1473   85.7437   10.6921 C.ar    1  UNL1        0.0662
     28 C          62.5226   85.6120    9.2459 C.ar    1  UNL1        0.0161
     29 C          63.4420   84.5111    8.8068 C.ar    1  UNL1        0.0014
     30 C          63.9860   83.5418    9.8139 C.ar    1  UNL1        0.0016
     31 C          63.6106   83.6734   11.2603 C.ar    1  UNL1        0.0189
     32 C          64.1546   82.7041   12.2675 C.ar    1  UNL1        0.0031
     33 C          63.7793   82.8357   13.7138 C.ar    1  UNL1        0.0207
     34 C          62.8599   83.9366   14.1528 C.ar    1  UNL1        0.0989
     35 N          62.3159   84.9059   13.1457 N.ar    1  UNL1       -0.2426
     36 C          62.6913   84.7743   11.6994 C.ar    1  UNL1        0.0946
@<TRIPOS>BOND
     1    23    24    1
     2    24     1    1
     3     1     2   ar
     4     2     3   ar
     5     3     4   ar
     6     4    25    1
     7    25    27    1
     8    27    28   ar
     9    28    29   ar
    10    29    30   ar
    11    30    31   ar
    12    31    32   ar
    13    32    33   ar
    14    33    34   ar
    15    34    35   ar
    16    35    36   ar
    17     4     5   ar
    18     5    18    1
    19    18    19   am
    20    18    20    2
    21     5     6   ar
    22     6     7   ar
    23     7     8   ar
    24     8     9   ar
    25     9    10   ar
    26    10    11    1
    27    11    12   ar
    28    12    13    1
    29    12    14   ar
    30    14    15   ar
    31    15    16   ar
    32    16    17    1
    33    10     1   ar
    34    16    11   ar
    35     8     3   ar
    36    36    27   ar
    37    36    31   ar
    38    25    26    1
    39    19    21    1
    40    19    22    1
@<TRIPOS>MOLECULE
*****
 36 40 0 0 0
SMALL
GASTEIGER

@<TRIPOS>ATOM
      1 C          62.9835   85.7179   13.0095 C.ar    1  UNL1        0.1389
      2 C          62.4134   87.0182   12.5256 C.ar    1  UNL1        0.0396
      3 C          61.7124   87.0830   11.2011 C.ar    1  UNL1        0.0343
      4 C          61.1423   88.3834   10.7172 C.ar    1  UNL1        0.0558
      5 C          60.4412   88.4483    9.3926 C.ar    1  UNL1        0.0856
      6 C          60.3103   87.2128    8.5521 C.ar    1  UNL1        0.1045
      7 N          60.8804   85.9125    9.0360 N.ar    1  UNL1       -0.2436
      8 C          61.5814   85.8477   10.3605 C.ar    1  UNL1        0.0827
      9 C          62.1515   84.5474   10.8444 C.ar    1  UNL1        0.0223
     10 C          62.8526   84.4825   12.1690 C.ar    1  UNL1        0.0394
     11 C          63.4227   83.1821   12.6529 C.ar    1  UNL1        0.0526
     12 C          63.1695   82.5517   13.9902 C.ar    1  UNL1        0.1007
     13 C          62.3018   83.1109   15.0785 C.3     1  UNL1        0.0557
     14 N          63.9364   81.2639   14.0482 N.ar    1  UNL1       -0.0817
     15 O          64.6636   81.0984   12.7467 O.2     1  UNL1       -0.3581
     16 C          64.3461   82.2839   11.8844 C.ar    1  UNL1        0.1545
     17 C          64.8615   82.5283   10.4971 C.3     1  UNL1        0.0754
     18 C          59.8712   89.7486    8.9087 C.2     1  UNL1        0.2455
     19 N          59.7015   89.9921    7.4384 N.am    1  UNL1       -0.3252
     20 O          59.4707   90.8053    9.8951 O.2     1  UNL1       -0.2703
     21 H          59.9643   89.2986    6.7910 H       1  UNL1        0.1453
     22 H          59.3273   90.8456    7.1208 H       1  UNL1        0.1453
     23 C          64.4935   86.8220   14.8125 C.3     1  UNL1        0.2525
     24 O          63.6846   85.6530   14.3340 O.3     1  UNL1       -0.4714
     25 N          61.2732   89.6188   11.5577 N.pl3   1  UNL1       -0.3112
     26 H          60.5324   89.8963   12.1437 H       1  UNL1        0.1523
     27 C          62.5330   90.4314   11.5056 C.ar    1  UNL1        0.0662
     28 C          63.0015   91.0058   10.2016 C.ar    1  UNL1        0.0161
     29 C          64.2613   91.8184   10.1494 C.ar    1  UNL1        0.0014
     30 C          65.0525   92.0566   11.4013 C.ar    1  UNL1        0.0016
     31 C          64.5840   91.4822   12.7054 C.ar    1  UNL1        0.0189
     32 C          65.3752   91.7204   13.9572 C.ar    1  UNL1        0.0031
     33 C          64.9066   91.1460   15.2612 C.ar    1  UNL1        0.0207
     34 C          63.6469   90.3334   15.3134 C.ar    1  UNL1        0.0989
     35 N          62.8557   90.0952   14.0615 N.ar    1  UNL1       -0.2426
     36 C          63.3242   90.6696   12.7575 C.ar    1  UNL1        0.0946
@<TRIPOS>BOND
     1    23    24    1
     2    24     1    1
     3     1     2   ar
     4     2     3   ar
     5     3     4   ar
     6     4    25    1
     7    25    27    1
     8    27    28   ar
     9    28    29   ar
    10    29    30   ar
    11    30    31   ar
    12    31    32   ar
    13    32    33   ar
    14    33    34   ar
    15    34    35   ar
    16    35    36   ar
    17     4     5   ar
    18     5    18    1
    19    18    19   am
    20    18    20    2
    21     5     6   ar
    22     6     7   ar
    23     7     8   ar
    24     8     9   ar
    25     9    10   ar
    26    10    11    1
    27    11    12   ar
    28    12    13    1
    29    12    14   ar
    30    14    15   ar
    31    15    16   ar
    32    16    17    1
    33    10     1   ar
    34    16    11   ar
    35     8     3   ar
    36    36    27   ar
    37    36    31   ar
    38    25    26    1
    39    19    21    1
    40    19    22    1
@<TRIPOS>MOLECULE
*****
 36 40 0 0 0
SMALL
GASTEIGER

@<TRIPOS>ATOM
      1 C          62.6366   90.2514   10.4121 C.ar    1  UNL1        0.1389
      2 C          63.5622   91.2565   11.0309 C.ar    1  UNL1        0.0396
      3 C          64.2002   90.9711   12.3581 C.ar    1  UNL1        0.0343
      4 C          65.1259   91.9763   12.9769 C.ar    1  UNL1        0.0558
      5 C          65.7639   91.6909   14.3041 C.ar    1  UNL1        0.0856
      6 C          65.4763   90.4003   15.0125 C.ar    1  UNL1        0.1045
      7 N          64.5507   89.3952   14.3937 N.ar    1  UNL1       -0.2436
      8 C          63.9126   89.6806   13.0665 C.ar    1  UNL1        0.0827
      9 C          62.9870   88.6755   12.4477 C.ar    1  UNL1        0.0223
     10 C          62.3490   88.9609   11.1205 C.ar    1  UNL1        0.0394
     11 C          61.4234   87.9557   10.5017 C.ar    1  UNL1        0.0526
     12 C          61.8061   86.8990    9.5084 C.ar    1  UNL1        0.1007
     13 C          63.1818   86.6617    8.9594 C.3     1  UNL1        0.0557
     14 N          60.5718   86.1210    9.1604 N.ar    1  UNL1       -0.0817
     15 O          59.4260   86.6970    9.9386 O.2     1  UNL1       -0.3581
     16 C          59.9524   87.8309   10.7676 C.ar    1  UNL1        0.1545
     17 C          59.1488   88.6893   11.6989 C.3     1  UNL1        0.0754
     18 C          66.6895   92.6960   14.9229 C.2     1  UNL1        0.2455
     19 N          66.4287   93.2008   16.3111 N.am    1  UNL1       -0.3252
     20 O          67.8761   93.1963   14.1535 O.2     1  UNL1       -0.2703
     21 H          65.6500   92.8725   16.8161 H       1  UNL1        0.1453
     22 H          67.0362   93.8605   16.7172 H       1  UNL1        0.1453
     23 C          60.5551   90.1978    8.8582 C.3     1  UNL1        0.2525
     24 O          61.9986   90.5368    9.0849 O.3     1  UNL1       -0.4714
     25 N          65.4135   93.2668   12.2685 N.pl3   1  UNL1       -0.3112
     26 H          64.9591   94.0940   12.5486 H       1  UNL1        0.1523
     27 C          66.3935   93.2970   11.1332 C.ar    1  UNL1        0.0662
     28 C          67.3255   92.1419   10.9161 C.ar    1  UNL1        0.0161
     29 C          68.3054   92.1721    9.7808 C.ar    1  UNL1        0.0014
     30 C          68.3533   93.3574    8.8627 C.ar    1  UNL1        0.0016
     31 C          67.4213   94.5125    9.0799 C.ar    1  UNL1        0.0189
     32 C          67.4693   95.6977    8.1618 C.ar    1  UNL1        0.0031
     33 C          66.5373   96.8527    8.3790 C.ar    1  UNL1        0.0207
     34 C          65.5573   96.8226    9.5143 C.ar    1  UNL1        0.0989
     35 N          65.5094   95.6373   10.4323 N.ar    1  UNL1       -0.2426
     36 C          66.4414   94.4823   10.2151 C.ar    1  UNL1        0.0946
@<TRIPOS>BOND
     1    23    24    1
     2    24     1    1
     3     1     2   ar
     4     2     3   ar
     5     3     4   ar
     6     4    25    1
     7    25    27    1
     8    27    28   ar
     9    28    29   ar
    10    29    30   ar
    11    30    31   ar
    12    31    32   ar
    13    32    33   ar
    14    33    34   ar
    15    34    35   ar
    16    35    36   ar
    17     4     5   ar
    18     5    18    1
    19    18    19   am
    20    18    20    2
    21     5     6   ar
    22     6     7   ar
    23     7     8   ar
    24     8     9   ar
    25     9    10   ar
    26    10    11    1
    27    11    12   ar
    28    12    13    1
    29    12    14   ar
    30    14    15   ar
    31    15    16   ar
    32    16    17    1
    33    10     1   ar
    34    16    11   ar
    35     8     3   ar
    36    36    27   ar
    37    36    31   ar
    38    25    26    1
    39    19    21    1
    40    19    22    1
@<TRIPOS>MOLECULE
*****
 36 40 0 0 0
SMALL
GASTEIGER

@<TRIPOS>ATOM
      1 C          62.4804   86.4133   11.1455 C.ar    1  UNL1        0.1389
      2 C          63.2462   87.0266   12.2801 C.ar    1  UNL1        0.0396
      3 C          63.4034   88.5161   12.3604 C.ar    1  UNL1        0.0343
      4 C          64.1692   89.1294   13.4951 C.ar    1  UNL1        0.0558
      5 C          64.3264   90.6190   13.5754 C.ar    1  UNL1        0.0856
      6 C          63.7177   91.4953   12.5211 C.ar    1  UNL1        0.1045
      7 N          62.9519   90.8820   11.3865 N.ar    1  UNL1       -0.2436
      8 C          62.7947   89.3925   11.3061 C.ar    1  UNL1        0.0827
      9 C          62.0289   88.7792   10.1715 C.ar    1  UNL1        0.0223
     10 C          61.8717   87.2896   10.0912 C.ar    1  UNL1        0.0394
     11 C          61.1059   86.6764    8.9565 C.ar    1  UNL1        0.0526
     12 C          61.6482   85.7063    7.9491 C.ar    1  UNL1        0.1007
     13 C          63.0516   85.1792    7.8995 C.3     1  UNL1        0.0557
     14 N          60.5407   85.3560    7.0001 N.ar    1  UNL1       -0.0817
     15 O          59.3139   86.1095    7.4209 O.2     1  UNL1       -0.3581
     16 C          59.6632   86.9255    8.6301 C.ar    1  UNL1        0.1545
     17 C          58.7330   87.8316    9.3809 C.3     1  UNL1        0.0754
     18 C          65.0922   91.2322   14.7100 C.2     1  UNL1        0.2455
     19 N          66.5843   91.3604   14.6252 N.am    1  UNL1       -0.3252
     20 O          64.3659   91.7174   15.9296 O.2     1  UNL1       -0.2703
     21 H          67.0610   91.0419   13.8248 H       1  UNL1        0.1453
     22 H          67.0870   91.7629   15.3699 H       1  UNL1        0.1453
     23 C          63.5343   84.0473   10.9425 C.3     1  UNL1        0.2525
     24 O          62.3232   84.9237   11.0652 O.3     1  UNL1       -0.4714
     25 N          64.7779   88.2531   14.5494 N.pl3   1  UNL1       -0.3112
     26 H          65.7568   88.1766   14.6210 H       1  UNL1        0.1523
     27 C          63.8951   87.4932   15.4945 C.ar    1  UNL1        0.0662
     28 C          63.1477   88.2214   16.5721 C.ar    1  UNL1        0.0161
     29 C          62.2649   87.4615   17.5172 C.ar    1  UNL1        0.0014
     30 C          62.1295   85.9736   17.3848 C.ar    1  UNL1        0.0016
     31 C          62.8769   85.2453   16.3073 C.ar    1  UNL1        0.0189
     32 C          62.7416   83.7574   16.1749 C.ar    1  UNL1        0.0031
     33 C          63.4890   83.0293   15.0973 C.ar    1  UNL1        0.0207
     34 C          64.3718   83.7891   14.1522 C.ar    1  UNL1        0.0989
     35 N          64.5072   85.2771   14.2846 N.ar    1  UNL1       -0.2426
     36 C          63.7597   86.0052   15.3621 C.ar    1  UNL1        0.0946
@<TRIPOS>BOND
     1    23    24    1
     2    24     1    1
     3     1     2   ar
     4     2     3   ar
     5     3     4   ar
     6     4    25    1
     7    25    27    1
     8    27    28   ar
     9    28    29   ar
    10    29    30   ar
    11    30    31   ar
    12    31    32   ar
    13    32    33   ar
    14    33    34   ar
    15    34    35   ar
    16    35    36   ar
    17     4     5   ar
    18     5    18    1
    19    18    19   am
    20    18    20    2
    21     5     6   ar
    22     6     7   ar
    23     7     8   ar
    24     8     9   ar
    25     9    10   ar
    26    10    11    1
    27    11    12   ar
    28    12    13    1
    29    12    14   ar
    30    14    15   ar
    31    15    16   ar
    32    16    17    1
    33    10     1   ar
    34    16    11   ar
    35     8     3   ar
    36    36    27   ar
    37    36    31   ar
    38    25    26    1
    39    19    21    1
    40    19    22    1
@<TRIPOS>MOLECULE
*****
 36 40 0 0 0
SMALL
GASTEIGER

@<TRIPOS>ATOM
      1 C          63.4135   89.7218   12.7650 C.ar    1  UNL1        0.1389
      2 C          62.8903   88.3238   12.6181 C.ar    1  UNL1        0.0396
      3 C          63.4843   87.2114   13.4304 C.ar    1  UNL1        0.0343
      4 C          62.9610   85.8133   13.2835 C.ar    1  UNL1        0.0558
      5 C          63.5551   84.7010   14.0958 C.ar    1  UNL1        0.0856
      6 C          64.6724   84.9868   15.0550 C.ar    1  UNL1        0.1045
      7 N          65.1956   86.3848   15.2019 N.ar    1  UNL1       -0.2436
      8 C          64.6015   87.4972   14.3896 C.ar    1  UNL1        0.0827
      9 C          65.1247   88.8952   14.5365 C.ar    1  UNL1        0.0223
     10 C          64.5307   90.0076   13.7242 C.ar    1  UNL1        0.0394
     11 C          65.0540   91.4057   13.8711 C.ar    1  UNL1        0.0526
     12 C          65.6366   92.2487   12.7758 C.ar    1  UNL1        0.1007
     13 C          65.7983   91.8417   11.3412 C.3     1  UNL1        0.0557
     14 N          66.0292   93.5702   13.3669 N.ar    1  UNL1       -0.0817
     15 O          65.6892   93.5440   14.8277 O.2     1  UNL1       -0.3581
     16 C          65.0865   92.2062   15.1393 C.ar    1  UNL1        0.1545
     17 C          64.6014   91.7492   16.4831 C.3     1  UNL1        0.0754
     18 C          63.0319   83.3029   13.9489 C.2     1  UNL1        0.2455
     19 N          62.4071   82.6087   15.1227 N.am    1  UNL1       -0.3252
     20 O          63.1334   82.5990   12.6282 O.2     1  UNL1       -0.2703
     21 H          62.3404   83.0707   15.9895 H       1  UNL1        0.1453
     22 H          62.0637   81.6911   15.0263 H       1  UNL1        0.1453
     23 C          62.3797   90.5800   10.5414 C.3     1  UNL1        0.2525
     24 O          62.8195   90.8342   11.9527 O.3     1  UNL1       -0.4714
     25 N          61.8438   85.5276   12.3243 N.pl3   1  UNL1       -0.3112
     26 H          60.9241   85.4188   12.6582 H       1  UNL1        0.1523
     27 C          62.1278   85.4076   10.8563 C.ar    1  UNL1        0.0662
     28 C          63.2323   84.5132   10.3768 C.ar    1  UNL1        0.0161
     29 C          63.5164   84.3933    8.9088 C.ar    1  UNL1        0.0014
     30 C          62.6959   85.1678    7.9204 C.ar    1  UNL1        0.0016
     31 C          61.5914   86.0623    8.3999 C.ar    1  UNL1        0.0189
     32 C          60.7709   86.8368    7.4115 C.ar    1  UNL1        0.0031
     33 C          59.6665   87.7312    7.8911 C.ar    1  UNL1        0.0207
     34 C          59.3824   87.8511    9.3591 C.ar    1  UNL1        0.0989
     35 N          60.2028   87.0766   10.3475 N.ar    1  UNL1       -0.2426
     36 C          61.3073   86.1822    9.8679 C.ar    1  UNL1        0.0946
@<TRIPOS>BOND
     1    23    24    1
     2    24     1    1
     3     1     2   ar
     4     2     3   ar
     5     3     4   ar
     6     4    25    1
     7    25    27    1
     8    27    28   ar
     9    28    29   ar
    10    29    30   ar
    11    30    31   ar
    12    31    32   ar
    13    32    33   ar
    14    33    34   ar
    15    34    35   ar
    16    35    36   ar
    17     4     5   ar
    18     5    18    1
    19    18    19   am
    20    18    20    2
    21     5     6   ar
    22     6     7   ar
    23     7     8   ar
    24     8     9   ar
    25     9    10   ar
    26    10    11    1
    27    11    12   ar
    28    12    13    1
    29    12    14   ar
    30    14    15   ar
    31    15    16   ar
    32    16    17    1
    33    10     1   ar
    34    16    11   ar
    35     8     3   ar
    36    36    27   ar
    37    36    31   ar
    38    25    26    1
    39    19    21    1
    40    19    22    1
@<TRIPOS>MOLECULE
*****
 36 40 0 0 0
SMALL
GASTEIGER

@<TRIPOS>ATOM
      1 C          64.0316   88.0550   13.6684 C.ar    1  UNL1        0.1389
      2 C          63.6116   87.0823   12.6066 C.ar    1  UNL1        0.0396
      3 C          62.7069   87.5283   11.4964 C.ar    1  UNL1        0.0343
      4 C          62.2869   86.5556   10.4346 C.ar    1  UNL1        0.0558
      5 C          61.3821   87.0016    9.3244 C.ar    1  UNL1        0.0856
      6 C          60.8974   88.4203    9.2761 C.ar    1  UNL1        0.1045
      7 N          61.3174   89.3930   10.3379 N.ar    1  UNL1       -0.2436
      8 C          62.2221   88.9470   11.4481 C.ar    1  UNL1        0.0827
      9 C          62.6421   89.9196   12.5099 C.ar    1  UNL1        0.0223
     10 C          63.5469   89.4737   13.6201 C.ar    1  UNL1        0.0394
     11 C          63.9669   90.4464   14.6819 C.ar    1  UNL1        0.0526
     12 C          64.8549   91.6389   14.4837 C.ar    1  UNL1        0.1007
     13 C          65.4789   92.0681   13.1890 C.3     1  UNL1        0.0557
     14 N          65.0094   92.3269   15.8077 N.ar    1  UNL1       -0.0817
     15 O          64.2168   91.5596   16.8241 O.2     1  UNL1       -0.3581
     16 C          63.5725   90.3974   16.1283 C.ar    1  UNL1        0.1545
     17 C          62.6890   89.3671   16.7668 C.3     1  UNL1        0.0754
     18 C          60.9621   86.0289    8.2626 C.2     1  UNL1        0.2455
     19 N          59.5243   85.9521    7.8421 N.am    1  UNL1       -0.3252
     20 O          61.9800   85.1329    7.6212 O.2     1  UNL1       -0.2703
     21 H          58.8563   86.5402    8.2631 H       1  UNL1        0.1453
     22 H          59.2487   85.3137    7.1452 H       1  UNL1        0.1453
     23 C          64.9948   86.1602   15.1623 C.3     1  UNL1        0.2525
     24 O          64.9364   87.6090   14.7786 O.3     1  UNL1       -0.4714
     25 N          62.7716   85.1369   10.4830 N.pl3   1  UNL1       -0.3112
     26 H          63.2270   84.7454    9.7028 H       1  UNL1        0.1523
     27 C          62.5627   84.3147   11.7200 C.ar    1  UNL1        0.0662
     28 C          62.2286   84.9859   13.0192 C.ar    1  UNL1        0.0161
     29 C          62.0197   84.1637   14.2562 C.ar    1  UNL1        0.0014
     30 C          62.1448   82.6703   14.1942 C.ar    1  UNL1        0.0016
     31 C          62.4789   81.9990   12.8950 C.ar    1  UNL1        0.0189
     32 C          62.6040   80.5055   12.8329 C.ar    1  UNL1        0.0031
     33 C          62.9381   79.8343   11.5338 C.ar    1  UNL1        0.0207
     34 C          63.1470   80.6565   10.2967 C.ar    1  UNL1        0.0989
     35 N          63.0219   82.1499   10.3588 N.ar    1  UNL1       -0.2426
     36 C          62.6878   82.8212   11.6579 C.ar    1  UNL1        0.0946
@<TRIPOS>BOND
     1    23    24    1
     2    24     1    1
     3     1     2   ar
     4     2     3   ar
     5     3     4   ar
     6     4    25    1
     7    25    27    1
     8    27    28   ar
     9    28    29   ar
    10    29    30   ar
    11    30    31   ar
    12    31    32   ar
    13    32    33   ar
    14    33    34   ar
    15    34    35   ar
    16    35    36   ar
    17     4     5   ar
    18     5    18    1
    19    18    19   am
    20    18    20    2
    21     5     6   ar
    22     6     7   ar
    23     7     8   ar
    24     8     9   ar
    25     9    10   ar
    26    10    11    1
    27    11    12   ar
    28    12    13    1
    29    12    14   ar
    30    14    15   ar
    31    15    16   ar
    32    16    17    1
    33    10     1   ar
    34    16    11   ar
    35     8     3   ar
    36    36    27   ar
    37    36    31   ar
    38    25    26    1
    39    19    21    1
    40    19    22    1
@<TRIPOS>MOLECULE
*****
 36 40 0 0 0
SMALL
GASTEIGER

@<TRIPOS>ATOM
      1 C          63.4007   89.7074   12.8390 C.ar    1  UNL1        0.1389
      2 C          62.8481   88.3286   12.6303 C.ar    1  UNL1        0.0396
      3 C          63.4073   87.1715   13.4038 C.ar    1  UNL1        0.0343
      4 C          62.8546   85.7926   13.1950 C.ar    1  UNL1        0.0558
      5 C          63.4138   84.6355   13.9685 C.ar    1  UNL1        0.0856
      6 C          64.5257   84.8571   14.9507 C.ar    1  UNL1        0.1045
      7 N          65.0783   86.2359   15.1594 N.ar    1  UNL1       -0.2436
      8 C          64.5191   87.3930   14.3859 C.ar    1  UNL1        0.0827
      9 C          65.0718   88.7718   14.5946 C.ar    1  UNL1        0.0223
     10 C          64.5125   89.9289   13.8211 C.ar    1  UNL1        0.0394
     11 C          65.0652   91.3078   14.0298 C.ar    1  UNL1        0.0526
     12 C          65.0132   92.0947   15.3058 C.ar    1  UNL1        0.1007
     13 C          64.3992   91.6411   16.5970 C.3     1  UNL1        0.0557
     14 N          65.6828   93.4149   15.0637 N.ar    1  UNL1       -0.0817
     15 O          66.1487   93.4440   13.6382 O.2     1  UNL1       -0.3581
     16 C          65.7671   92.1416   12.9992 C.ar    1  UNL1        0.1545
     17 C          66.0394   91.7432   11.5790 C.3     1  UNL1        0.0754
     18 C          62.8611   83.2567   13.7598 C.2     1  UNL1        0.2455
     19 N          62.5689   82.3792   14.9407 N.am    1  UNL1       -0.3252
     20 O          62.6007   82.7555   12.3702 O.2     1  UNL1       -0.2703
     21 H          62.7398   82.7081   15.8527 H       1  UNL1        0.1453
     22 H          62.2062   81.4742   14.8037 H       1  UNL1        0.1453
     23 C          62.9866   90.9094   10.5733 C.3     1  UNL1        0.2525
     24 O          62.8415   90.8645   12.0655 O.3     1  UNL1       -0.4714
     25 N          61.7427   85.5711   12.2129 N.pl3   1  UNL1       -0.3112
     26 H          60.8117   85.5141   12.5279 H       1  UNL1        0.1523
     27 C          62.0493   85.4363   10.7508 C.ar    1  UNL1        0.0662
     28 C          63.1995   84.5850   10.3010 C.ar    1  UNL1        0.0161
     29 C          63.5061   84.4503    8.8388 C.ar    1  UNL1        0.0014
     30 C          62.6625   85.1669    7.8265 C.ar    1  UNL1        0.0016
     31 C          61.5123   86.0182    8.2763 C.ar    1  UNL1        0.0189
     32 C          60.6687   86.7348    7.2639 C.ar    1  UNL1        0.0031
     33 C          59.5185   87.5861    7.7137 C.ar    1  UNL1        0.0207
     34 C          59.2119   87.7208    9.1759 C.ar    1  UNL1        0.0989
     35 N          60.0555   87.0042   10.1882 N.ar    1  UNL1       -0.2426
     36 C          61.2057   86.1530    9.7384 C.ar    1  UNL1        0.0946
@<TRIPOS>BOND
     1    23    24    1
     2    24     1    1
     3     1     2   ar
     4     2     3   ar
     5     3     4   ar
     6     4    25    1
     7    25    27    1
     8    27    28   ar
     9    28    29   ar
    10    29    30   ar
    11    30    31   ar
    12    31    32   ar
    13    32    33   ar
    14    33    34   ar
    15    34    35   ar
    16    35    36   ar
    17     4     5   ar
    18     5    18    1
    19    18    19   am
    20    18    20    2
    21     5     6   ar
    22     6     7   ar
    23     7     8   ar
    24     8     9   ar
    25     9    10   ar
    26    10    11    1
    27    11    12   ar
    28    12    13    1
    29    12    14   ar
    30    14    15   ar
    31    15    16   ar
    32    16    17    1
    33    10     1   ar
    34    16    11   ar
    35     8     3   ar
    36    36    27   ar
    37    36    31   ar
    38    25    26    1
    39    19    21    1
    40    19    22    1
