@<TRIPOS>MOLECULE
*****
 27 31 0 0 0
SMALL
GASTEIGER

@<TRIPOS>ATOM
      1 C          62.4783   89.9488   11.9030 C.2     1  UNL1        0.1186
      2 C          62.8857   90.6487   10.6404 C.2     1  UNL1        0.0359
      3 C          64.0021   91.6501   10.6648 C.2     1  UNL1        0.0041
      4 C          64.7113   91.9516   11.9518 C.2     1  UNL1        0.0117
      5 C          65.8396   92.8834   12.2816 C.2     1  UNL1       -0.0009
      6 C          66.1296   92.7593   13.7480 C.2     1  UNL1        0.0942
      7 N          65.1805   91.7508   14.3245 N.2     1  UNL1       -0.2480
      8 C          64.3039   91.2517   13.2143 C.2     1  UNL1        0.0667
      9 C          63.1874   90.2503   13.1900 C.3     1  UNL1        0.1127
     10 C          66.7555   94.2634   10.1787 C.3     1  UNL1        0.0399
     11 C          67.5968   93.4565    9.4854 C.3     1  UNL1        0.0765
     12 N          68.1147   93.0045    9.0321 N.3     1  UNL1       -0.2724
     13 C          67.8564   94.4037    8.5573 C.3     1  UNL1        0.0721
     14 C          66.9260   95.2962    9.3239 C.3     1  UNL1        0.0177
     15 C          66.2537   94.7894   10.5654 C.3     1  UNL1        0.0082
     16 C          66.5119   93.3902   11.0402 C.3     1  UNL1        0.0177
     17 C          67.4424   92.4978   10.2735 C.3     1  UNL1        0.0721
     18 N          61.3618   88.9474   11.8787 N.pl3   1  UNL1       -0.2022
     19 H          60.5400   89.1137   12.3947 H       1  UNL1        0.2982
     20 N          62.3604   86.5698   11.5627 N.2     1  UNL1       -0.0985
     21 C          61.4973   87.6925   11.0682 C.2     1  UNL1        0.3222
     22 H          62.8380   86.6566   12.4192 H       1  UNL1        0.3633
     23 C          60.7697   87.5604    9.7631 C.ar    1  UNL1        0.1113
     24 C          60.5560   86.2881    8.9978 C.ar    1  UNL1        0.0144
     25 C          59.7823   86.6187    7.7559 C.ar    1  UNL1        0.0077
     26 C          59.5179   88.0952    7.7538 C.ar    1  UNL1        0.0357
     27 S          60.1281   88.6772    8.9943 S.2     1  UNL1       -0.0792
@<TRIPOS>BOND
     1    20    21    2
     2    21    18    1
     3    18     1    1
     4     1     2    2
     5     2     3    1
     6     3     4    2
     7     4     5    1
     8     5    10    1
     9    10    11    1
    10    11    12    1
    11    12    13    1
    12    13    14    1
    13    14    15    1
    14    15    16    1
    15    16    17    1
    16     5     6    2
    17     6     7    1
    18     7     8    2
    19     8     9    1
    20    21    23    1
    21    23    24   ar
    22    24    25   ar
    23    25    26   ar
    24    26    27   ar
    25     9     1    1
    26    27    23   ar
    27     8     4    1
    28    15    10    1
    29    17    12    1
    30    20    22    1
    31    18    19    1
@<TRIPOS>MOLECULE
*****
 27 31 0 0 0
SMALL
GASTEIGER

@<TRIPOS>ATOM
      1 C          63.4297   90.3681   12.3761 C.2     1  UNL1        0.1186
      2 C          62.8061   90.2945   11.0139 C.2     1  UNL1        0.0359
      3 C          62.3967   88.9674   10.4472 C.2     1  UNL1        0.0041
      4 C          62.6107   87.7139   11.2427 C.2     1  UNL1        0.0117
      5 C          62.3107   86.2741   10.9474 C.2     1  UNL1       -0.0009
      6 C          62.7489   85.4579   12.1271 C.2     1  UNL1        0.0942
      7 N          63.3197   86.3932   13.1515 N.2     1  UNL1       -0.2480
      8 C          63.2343   87.7875   12.6050 C.2     1  UNL1        0.0667
      9 C          63.6438   89.1146   13.1716 C.3     1  UNL1        0.1127
     10 C          61.1832   85.8712    8.5533 C.3     1  UNL1        0.0399
     11 C          62.1008   85.2684    7.7569 C.3     1  UNL1        0.0765
     12 N          62.6235   84.9024    7.2366 N.3     1  UNL1       -0.2724
     13 C          61.2576   85.2165    6.7022 C.3     1  UNL1        0.0721
     14 C          60.2427   85.8831    7.5829 C.3     1  UNL1        0.0177
     15 C          60.5937   86.2357    8.9979 C.3     1  UNL1        0.0082
     16 C          61.9597   85.9216    9.5323 C.3     1  UNL1        0.0177
     17 C          62.9745   85.2549    8.6516 C.3     1  UNL1        0.0721
     18 N          63.8392   91.6952   12.9429 N.pl3   1  UNL1       -0.2022
     19 H          63.2153   92.2009   13.5123 H       1  UNL1        0.2982
     20 N          65.5611   92.6288   11.2360 N.2     1  UNL1       -0.0985
     21 C          65.1992   92.2517   12.6420 C.2     1  UNL1        0.3222
     22 H          64.9060   92.5109   10.5106 H       1  UNL1        0.3633
     23 C          66.1974   92.4313   13.7472 C.ar    1  UNL1        0.1113
     24 C          66.8009   91.3367   14.5765 C.ar    1  UNL1        0.0144
     25 C          67.7439   91.9658   15.5590 C.ar    1  UNL1        0.0077
     26 C          67.7231   93.4491   15.3368 C.ar    1  UNL1        0.0357
     27 S          66.7674   93.7368   14.2170 S.2     1  UNL1       -0.0792
@<TRIPOS>BOND
     1    20    21    2
     2    21    18    1
     3    18     1    1
     4     1     2    2
     5     2     3    1
     6     3     4    2
     7     4     5    1
     8     5    10    1
     9    10    11    1
    10    11    12    1
    11    12    13    1
    12    13    14    1
    13    14    15    1
    14    15    16    1
    15    16    17    1
    16     5     6    2
    17     6     7    1
    18     7     8    2
    19     8     9    1
    20    21    23    1
    21    23    24   ar
    22    24    25   ar
    23    25    26   ar
    24    26    27   ar
    25     9     1    1
    26    27    23   ar
    27     8     4    1
    28    15    10    1
    29    17    12    1
    30    20    22    1
    31    18    19    1
@<TRIPOS>MOLECULE
*****
 27 31 0 0 0
SMALL
GASTEIGER

@<TRIPOS>ATOM
      1 C          62.7870   88.9491   11.8659 C.2     1  UNL1        0.1186
      2 C          63.4973   88.9409   13.1870 C.2     1  UNL1        0.0359
      3 C          64.4306   90.0597   13.5436 C.2     1  UNL1        0.0041
      4 C          64.6536   91.1867   12.5791 C.2     1  UNL1        0.0117
      5 C          65.5080   92.4174   12.6537 C.2     1  UNL1       -0.0009
      6 C          65.3257   93.1861   11.3786 C.2     1  UNL1        0.0942
      7 N          64.3586   92.4306   10.5161 N.2     1  UNL1       -0.2480
      8 C          63.9432   91.1949   11.2580 C.2     1  UNL1        0.0667
      9 C          63.0099   90.0761   10.9014 C.3     1  UNL1        0.1127
     10 C          66.8911   92.6398   14.9347 C.3     1  UNL1        0.0399
     11 C          68.1956   92.3939   14.6564 C.3     1  UNL1        0.0765
     12 N          68.9977   92.2523   14.5363 N.3     1  UNL1       -0.2724
     13 C          68.5786   92.5777   15.9393 C.3     1  UNL1        0.0721
     14 C          67.1359   92.8497   16.2471 C.3     1  UNL1        0.0177
     15 C          66.1124   92.7962   15.1519 C.3     1  UNL1        0.0082
     16 C          66.5315   92.4708   13.7489 C.3     1  UNL1        0.0177
     17 C          67.9742   92.1988   13.4411 C.3     1  UNL1        0.0721
     18 N          61.8536   87.8303   11.5092 N.pl3   1  UNL1       -0.2022
     19 H          62.1680   86.8979   11.5410 H       1  UNL1        0.2982
     20 N          59.4153   88.4596   12.1483 N.2     1  UNL1       -0.0985
     21 C          60.4413   88.1321   11.1042 C.2     1  UNL1        0.3222
     22 H          59.6689   88.4764   13.0994 H       1  UNL1        0.3633
     23 C          60.0548   88.1064    9.6550 C.ar    1  UNL1        0.1113
     24 C          60.0130   89.2887    8.7327 C.ar    1  UNL1        0.0144
     25 C          59.5747   88.8070    7.3813 C.ar    1  UNL1        0.0077
     26 C          59.3457   87.3271    7.4686 C.ar    1  UNL1        0.0357
     27 S          59.6424   86.8942    8.8738 S.2     1  UNL1       -0.0792
@<TRIPOS>BOND
     1    20    21    2
     2    21    18    1
     3    18     1    1
     4     1     2    2
     5     2     3    1
     6     3     4    2
     7     4     5    1
     8     5    10    1
     9    10    11    1
    10    11    12    1
    11    12    13    1
    12    13    14    1
    13    14    15    1
    14    15    16    1
    15    16    17    1
    16     5     6    2
    17     6     7    1
    18     7     8    2
    19     8     9    1
    20    21    23    1
    21    23    24   ar
    22    24    25   ar
    23    25    26   ar
    24    26    27   ar
    25     9     1    1
    26    27    23   ar
    27     8     4    1
    28    15    10    1
    29    17    12    1
    30    20    22    1
    31    18    19    1
@<TRIPOS>MOLECULE
*****
 27 31 0 0 0
SMALL
GASTEIGER

@<TRIPOS>ATOM
      1 C          62.9168   89.9197   11.9777 C.2     1  UNL1        0.1186
      2 C          63.5467   88.7977   12.7486 C.2     1  UNL1        0.0359
      3 C          63.2986   87.3757   12.3408 C.2     1  UNL1        0.0041
      4 C          62.4207   87.0757   11.1622 C.2     1  UNL1        0.0117
      5 C          61.9970   85.7833   10.5293 C.2     1  UNL1       -0.0009
      6 C          61.1053   86.1067    9.3674 C.2     1  UNL1        0.0942
      7 N          60.9778   87.5989    9.2820 N.2     1  UNL1       -0.2480
      8 C          61.7908   88.1977   10.3913 C.2     1  UNL1        0.0667
      9 C          62.0389   89.6197   10.7991 C.3     1  UNL1        0.1127
     10 C          62.9963   83.6098   11.7304 C.3     1  UNL1        0.0399
     11 C          63.9192   83.0627   10.9006 C.3     1  UNL1        0.0765
     12 N          64.4871   82.6947   10.4315 N.3     1  UNL1       -0.2724
     13 C          64.2012   82.0579   11.7592 C.3     1  UNL1        0.0721
     14 C          63.1806   82.6630   12.6769 C.3     1  UNL1        0.0177
     15 C          62.4458   83.9048   12.2670 C.3     1  UNL1        0.0082
     16 C          62.7317   84.5415   10.9393 C.3     1  UNL1        0.0177
     17 C          63.7523   83.9365   10.0216 C.3     1  UNL1        0.0721
     18 N          63.1649   91.3418   12.3854 N.pl3   1  UNL1       -0.2022
     19 H          62.4712   91.8423   12.8728 H       1  UNL1        0.2982
     20 N          64.7399   92.4611   10.6486 N.2     1  UNL1       -0.0985
     21 C          64.4699   92.0013   12.0506 C.2     1  UNL1        0.3222
     22 H          64.0607   92.3300    9.9481 H       1  UNL1        0.3633
     23 C          65.5049   92.2010   13.1179 C.ar    1  UNL1        0.1113
     24 C          65.8256   91.2415   14.2254 C.ar    1  UNL1        0.0144
     25 C          66.9198   91.8427   15.0570 C.ar    1  UNL1        0.0077
     26 C          67.2752   93.1736   14.4634 C.ar    1  UNL1        0.0357
     27 S          66.4008   93.3950   13.2649 S.2     1  UNL1       -0.0792
@<TRIPOS>BOND
     1    20    21    2
     2    21    18    1
     3    18     1    1
     4     1     2    2
     5     2     3    1
     6     3     4    2
     7     4     5    1
     8     5    10    1
     9    10    11    1
    10    11    12    1
    11    12    13    1
    12    13    14    1
    13    14    15    1
    14    15    16    1
    15    16    17    1
    16     5     6    2
    17     6     7    1
    18     7     8    2
    19     8     9    1
    20    21    23    1
    21    23    24   ar
    22    24    25   ar
    23    25    26   ar
    24    26    27   ar
    25     9     1    1
    26    27    23   ar
    27     8     4    1
    28    15    10    1
    29    17    12    1
    30    20    22    1
    31    18    19    1
@<TRIPOS>MOLECULE
*****
 27 31 0 0 0
SMALL
GASTEIGER

@<TRIPOS>ATOM
      1 C          62.8225   90.6571   11.0856 C.2     1  UNL1        0.1186
      2 C          64.0410   91.5289   11.1563 C.2     1  UNL1        0.0359
      3 C          64.7500   91.7223   12.4640 C.2     1  UNL1        0.0041
      4 C          64.2404   91.0438   13.7009 C.2     1  UNL1        0.0117
      5 C          64.7265   91.0469   15.1200 C.2     1  UNL1       -0.0009
      6 C          63.8083   90.1770   15.9263 C.2     1  UNL1        0.0942
      7 N          62.7548   89.6363   15.0056 N.2     1  UNL1       -0.2480
      8 C          63.0218   90.1720   13.6302 C.2     1  UNL1        0.0667
      9 C          62.3129   89.9787   12.3226 C.3     1  UNL1        0.1127
     10 C          66.9107   92.5434   15.5141 C.3     1  UNL1        0.0399
     11 C          67.8374   92.1782   14.5935 C.3     1  UNL1        0.0765
     12 N          68.4310   91.9909   14.0545 N.3     1  UNL1       -0.2724
     13 C          68.7460   93.0687   15.0490 C.3     1  UNL1        0.0721
     14 C          67.7212   93.4726   16.0672 C.3     1  UNL1        0.0177
     15 C          66.3813   92.7987   16.0909 C.3     1  UNL1        0.0082
     16 C          66.0663   91.7209   15.0964 C.3     1  UNL1        0.0177
     17 C          67.0911   91.3170   14.0783 C.3     1  UNL1        0.0721
     18 N          62.1135   90.4637    9.7780 N.pl3   1  UNL1       -0.2022
     19 H          62.5630   90.7003    8.9346 H       1  UNL1        0.2982
     20 N          59.5931   90.6887   10.3669 N.2     1  UNL1       -0.0985
     21 C          60.7197   89.9098    9.7552 C.2     1  UNL1        0.3222
     22 H          59.7684   91.5634   10.7832 H       1  UNL1        0.3633
     23 C          60.4525   88.5770    9.1209 C.ar    1  UNL1        0.1113
     24 C          61.0984   87.2764    9.4968 C.ar    1  UNL1        0.0144
     25 C          60.5375   86.2064    8.6075 C.ar    1  UNL1        0.0077
     26 C          59.5451   86.8458    7.6821 C.ar    1  UNL1        0.0357
     27 S          59.4926   88.3109    7.9994 S.2     1  UNL1       -0.0792
@<TRIPOS>BOND
     1    20    21    2
     2    21    18    1
     3    18     1    1
     4     1     2    2
     5     2     3    1
     6     3     4    2
     7     4     5    1
     8     5    10    1
     9    10    11    1
    10    11    12    1
    11    12    13    1
    12    13    14    1
    13    14    15    1
    14    15    16    1
    15    16    17    1
    16     5     6    2
    17     6     7    1
    18     7     8    2
    19     8     9    1
    20    21    23    1
    21    23    24   ar
    22    24    25   ar
    23    25    26   ar
    24    26    27   ar
    25     9     1    1
    26    27    23   ar
    27     8     4    1
    28    15    10    1
    29    17    12    1
    30    20    22    1
    31    18    19    1
@<TRIPOS>MOLECULE
*****
 27 31 0 0 0
SMALL
GASTEIGER

@<TRIPOS>ATOM
      1 C          63.7600   90.4513   12.6888 C.2     1  UNL1        0.1186
      2 C          63.0553   90.4467   11.3647 C.2     1  UNL1        0.0359
      3 C          62.5394   89.1590   10.7941 C.2     1  UNL1        0.0041
      4 C          62.7283   87.8758   11.5477 C.2     1  UNL1        0.0117
      5 C          62.3310   86.4627   11.2389 C.2     1  UNL1       -0.0009
      6 C          62.7902   85.5940   12.3722 C.2     1  UNL1        0.0942
      7 N          63.4713   86.4702   13.3814 N.2     1  UNL1       -0.2480
      8 C          63.4331   87.8804   12.8718 C.2     1  UNL1        0.0667
      9 C          63.9489   89.1682   13.4423 C.3     1  UNL1        0.1127
     10 C          61.0453   86.1832    8.9077 C.3     1  UNL1        0.0399
     11 C          61.8759   85.5419    8.0484 C.3     1  UNL1        0.0765
     12 N          62.3438   85.1554    7.4918 N.3     1  UNL1       -0.2724
     13 C          60.9723   85.5657    7.0438 C.3     1  UNL1        0.0721
     14 C          60.0537   86.2750    7.9942 C.3     1  UNL1        0.0177
     15 C          60.5065   86.5740    9.3925 C.3     1  UNL1        0.0082
     16 C          61.8780   86.1637    9.8406 C.3     1  UNL1        0.0177
     17 C          62.7966   85.4545    8.8902 C.3     1  UNL1        0.0721
     18 N          64.2760   91.7391   13.2594 N.pl3   1  UNL1       -0.2022
     19 H          64.2936   92.5516   12.7037 H       1  UNL1        0.2982
     20 N          63.8180   91.5132   15.8068 N.2     1  UNL1       -0.0985
     21 C          64.7649   91.7889   14.6766 C.2     1  UNL1        0.3222
     22 H          62.8756   91.2995   15.6184 H       1  UNL1        0.3633
     23 C          66.2008   92.1144   14.9636 C.ar    1  UNL1        0.1113
     24 C          66.7323   92.7140   16.2317 C.ar    1  UNL1        0.0144
     25 C          68.2173   92.8677   16.0848 C.ar    1  UNL1        0.0077
     26 C          68.6033   92.3631   14.7259 C.ar    1  UNL1        0.0357
     27 S          67.3570   91.8976   14.0330 S.2     1  UNL1       -0.0792
@<TRIPOS>BOND
     1    20    21    2
     2    21    18    1
     3    18     1    1
     4     1     2    2
     5     2     3    1
     6     3     4    2
     7     4     5    1
     8     5    10    1
     9    10    11    1
    10    11    12    1
    11    12    13    1
    12    13    14    1
    13    14    15    1
    14    15    16    1
    15    16    17    1
    16     5     6    2
    17     6     7    1
    18     7     8    2
    19     8     9    1
    20    21    23    1
    21    23    24   ar
    22    24    25   ar
    23    25    26   ar
    24    26    27   ar
    25     9     1    1
    26    27    23   ar
    27     8     4    1
    28    15    10    1
    29    17    12    1
    30    20    22    1
    31    18    19    1
@<TRIPOS>MOLECULE
*****
 27 31 0 0 0
SMALL
GASTEIGER

@<TRIPOS>ATOM
      1 C          63.7835   90.6680   12.4200 C.2     1  UNL1        0.1186
      2 C          63.0571   90.6043   11.1092 C.2     1  UNL1        0.0359
      3 C          62.5236   89.2942   10.6104 C.2     1  UNL1        0.0041
      4 C          62.7165   88.0478   11.4223 C.2     1  UNL1        0.0117
      5 C          62.3050   86.6242   11.1891 C.2     1  UNL1       -0.0009
      6 C          62.7770   85.8082   12.3559 C.2     1  UNL1        0.0942
      7 N          63.4803   86.7274   13.3101 N.2     1  UNL1       -0.2480
      8 C          63.4429   88.1115   12.7331 C.2     1  UNL1        0.0667
      9 C          63.9764   89.4216   13.2320 C.3     1  UNL1        0.1127
     10 C          60.9795   86.2412    8.8953 C.3     1  UNL1        0.0399
     11 C          61.8109   85.6011    8.0358 C.3     1  UNL1        0.0765
     12 N          62.2785   85.2134    7.4799 N.3     1  UNL1       -0.2724
     13 C          60.8860   85.5698    7.0510 C.3     1  UNL1        0.0721
     14 C          59.9665   86.2777    8.0015 C.3     1  UNL1        0.0177
     15 C          60.4394   86.6292    9.3809 C.3     1  UNL1        0.0082
     16 C          61.8319   86.2728    9.8098 C.3     1  UNL1        0.0177
     17 C          62.7514   85.5649    8.8593 C.3     1  UNL1        0.0721
     18 N          64.3170   91.9782   12.9189 N.pl3   1  UNL1       -0.2022
     19 H          63.7024   92.6486   13.2958 H       1  UNL1        0.2982
     20 N          66.7024   91.7864   13.9304 N.2     1  UNL1       -0.0985
     21 C          65.7870   92.2670   12.8436 C.2     1  UNL1        0.3222
     22 H          66.3384   91.2815   14.6932 H       1  UNL1        0.3633
     23 C          66.3417   93.0363   11.6815 C.ar    1  UNL1        0.1113
     24 C          67.1680   92.4716   10.5642 C.ar    1  UNL1        0.0144
     25 C          67.5045   93.5916    9.6247 C.ar    1  UNL1        0.0077
     26 C          66.8861   94.8484   10.1615 C.ar    1  UNL1        0.0357
     27 S          66.1674   94.5052   11.4326 S.2     1  UNL1       -0.0792
@<TRIPOS>BOND
     1    20    21    2
     2    21    18    1
     3    18     1    1
     4     1     2    2
     5     2     3    1
     6     3     4    2
     7     4     5    1
     8     5    10    1
     9    10    11    1
    10    11    12    1
    11    12    13    1
    12    13    14    1
    13    14    15    1
    14    15    16    1
    15    16    17    1
    16     5     6    2
    17     6     7    1
    18     7     8    2
    19     8     9    1
    20    21    23    1
    21    23    24   ar
    22    24    25   ar
    23    25    26   ar
    24    26    27   ar
    25     9     1    1
    26    27    23   ar
    27     8     4    1
    28    15    10    1
    29    17    12    1
    30    20    22    1
    31    18    19    1
@<TRIPOS>MOLECULE
*****
 27 31 0 0 0
SMALL
GASTEIGER

@<TRIPOS>ATOM
      1 C          63.1056   88.5675   12.4802 C.2     1  UNL1        0.1186
      2 C          62.5904   87.5132   11.5460 C.2     1  UNL1        0.0359
      3 C          62.8347   86.0634   11.8433 C.2     1  UNL1        0.0041
      4 C          63.5942   85.6680   13.0748 C.2     1  UNL1        0.0117
      5 C          63.9862   84.3289   13.6256 C.2     1  UNL1       -0.0009
      6 C          64.7437   84.5557   14.9003 C.2     1  UNL1        0.0942
      7 N          64.8199   86.0350   15.1372 N.2     1  UNL1       -0.2480
      8 C          64.1095   86.7224   14.0091 C.2     1  UNL1        0.0667
      9 C          63.8652   88.1721   13.7117 C.3     1  UNL1        0.1127
     10 C          63.1775   82.2625   12.1286 C.3     1  UNL1        0.0399
     11 C          63.8926   82.2780   10.9762 C.3     1  UNL1        0.0765
     12 N          64.3014   82.2463   10.2621 N.3     1  UNL1       -0.2724
     13 C          63.2726   81.1792   10.4921 C.3     1  UNL1        0.0721
     14 C          62.4817   81.1620   11.7665 C.3     1  UNL1        0.0177
     15 C          62.7195   82.2119   12.8110 C.3     1  UNL1        0.0082
     16 C          63.7483   83.2790   12.5811 C.3     1  UNL1        0.0177
     17 C          64.5392   83.2962   11.3067 C.3     1  UNL1        0.0721
     18 N          62.8614   90.0174   12.1829 N.pl3   1  UNL1       -0.2022
     19 H          62.2005   90.2753   11.5002 H       1  UNL1        0.2982
     20 N          63.3529   91.3108   14.3818 N.2     1  UNL1       -0.0985
     21 C          63.6239   91.0741   12.9256 C.2     1  UNL1        0.3222
     22 H          62.6745   90.7725   14.8501 H       1  UNL1        0.3633
     23 C          64.6576   91.8943   12.2121 C.ar    1  UNL1        0.1113
     24 C          64.6914   92.1840   10.7407 C.ar    1  UNL1        0.0144
     25 C          65.8936   93.0375   10.4640 C.ar    1  UNL1        0.0077
     26 C          66.6026   93.2752   11.7643 C.ar    1  UNL1        0.0357
     27 S          65.8387   92.5686   12.8447 S.2     1  UNL1       -0.0792
@<TRIPOS>BOND
     1    20    21    2
     2    21    18    1
     3    18     1    1
     4     1     2    2
     5     2     3    1
     6     3     4    2
     7     4     5    1
     8     5    10    1
     9    10    11    1
    10    11    12    1
    11    12    13    1
    12    13    14    1
    13    14    15    1
    14    15    16    1
    15    16    17    1
    16     5     6    2
    17     6     7    1
    18     7     8    2
    19     8     9    1
    20    21    23    1
    21    23    24   ar
    22    24    25   ar
    23    25    26   ar
    24    26    27   ar
    25     9     1    1
    26    27    23   ar
    27     8     4    1
    28    15    10    1
    29    17    12    1
    30    20    22    1
    31    18    19    1
@<TRIPOS>MOLECULE
*****
 27 31 0 0 0
SMALL
GASTEIGER

@<TRIPOS>ATOM
      1 C          62.2812   89.7885   12.0847 C.2     1  UNL1        0.1186
      2 C          62.9375   89.7882   13.4335 C.2     1  UNL1        0.0359
      3 C          64.1111   90.6846   13.6966 C.2     1  UNL1        0.0041
      4 C          64.6283   91.5812   12.6110 C.2     1  UNL1        0.0117
      5 C          65.7595   92.5657   12.5763 C.2     1  UNL1       -0.0009
      6 C          65.8023   93.1744   11.2060 C.2     1  UNL1        0.0942
      7 N          64.6975   92.5661   10.3939 N.2     1  UNL1       -0.2480
      8 C          63.9719   91.5815   11.2623 C.2     1  UNL1        0.0667
      9 C          62.7984   90.6851   10.9991 C.3     1  UNL1        0.1127
     10 C          67.1031   92.7545   14.8838 C.3     1  UNL1        0.0399
     11 C          68.3857   92.3802   14.6507 C.3     1  UNL1        0.0765
     12 N          69.1741   92.1616   14.5579 N.3     1  UNL1       -0.2724
     13 C          68.7537   92.5805   15.9355 C.3     1  UNL1        0.0721
     14 C          67.3352   92.9945   16.1933 C.3     1  UNL1        0.0177
     15 C          66.3371   92.9896   15.0736 C.3     1  UNL1        0.0082
     16 C          66.7576   92.5707   13.6961 C.3     1  UNL1        0.0177
     17 C          68.1760   92.1567   13.4382 C.3     1  UNL1        0.0721
     18 N          61.1076   88.8921   11.8215 N.pl3   1  UNL1       -0.2022
     19 H          60.3982   88.7985   12.4977 H       1  UNL1        0.2982
     20 N          60.2062   88.6928    9.3930 N.2     1  UNL1       -0.0985
     21 C          61.0149   88.1382   10.5280 C.2     1  UNL1        0.3222
     22 H          59.7363   89.5516    9.4969 H       1  UNL1        0.3633
     23 C          61.7310   86.8296   10.3696 C.ar    1  UNL1        0.1113
     24 C          62.0103   85.8397   11.4614 C.ar    1  UNL1        0.0144
     25 C          62.7453   84.6795   10.8582 C.ar    1  UNL1        0.0077
     26 C          62.9203   84.9525    9.3936 C.ar    1  UNL1        0.0357
     27 S          62.2934   86.2813    9.0917 S.2     1  UNL1       -0.0792
@<TRIPOS>BOND
     1    20    21    2
     2    21    18    1
     3    18     1    1
     4     1     2    2
     5     2     3    1
     6     3     4    2
     7     4     5    1
     8     5    10    1
     9    10    11    1
    10    11    12    1
    11    12    13    1
    12    13    14    1
    13    14    15    1
    14    15    16    1
    15    16    17    1
    16     5     6    2
    17     6     7    1
    18     7     8    2
    19     8     9    1
    20    21    23    1
    21    23    24   ar
    22    24    25   ar
    23    25    26   ar
    24    26    27   ar
    25     9     1    1
    26    27    23   ar
    27     8     4    1
    28    15    10    1
    29    17    12    1
    30    20    22    1
    31    18    19    1
