@<TRIPOS>MOLECULE
*****
 24 27 0 0 0
SMALL
GASTEIGER

@<TRIPOS>ATOM
      1 C          62.2095   89.0929   11.3697 C.ar    1  UNL1        0.1917
      2 N          62.2668   88.4991   12.7460 N.ar    1  UNL1       -0.1268
      3 N          63.2553   89.2895   13.5510 N.ar    1  UNL1       -0.1316
      4 C          63.8090   90.3718   12.6724 C.ar    1  UNL1        0.1615
      5 N          63.1626   90.2502   11.3242 N.ar    1  UNL1       -0.2940
      6 C          63.5255   91.2092   10.2293 C.3     1  UNL1        0.1302
      7 C          64.5347   92.2897   10.4826 C.3     1  UNL1        0.1186
      8 N          65.1810   92.4112   11.8308 N.am    1  UNL1       -0.2688
      9 C          66.1902   93.4916   12.0841 C.2     1  UNL1        0.2493
     10 O          66.8365   93.6131   13.4322 O.2     1  UNL1       -0.2699
     11 C          64.8181   91.4522   12.9257 C.3     1  UNL1        0.1343
     12 C          65.4644   91.5737   14.2738 C.3     1  UNL1        0.0298
     13 C          60.0914   86.0440    7.6150 C.3     1  UNL1        0.0744
     14 C          60.3765   87.2120    8.5118 C.ar    1  UNL1        0.1481
     15 N          59.6786   88.5394    8.4794 N.ar    1  UNL1       -0.1929
     16 S          60.2803   89.4056    9.5462 S.2     1  UNL1        0.0369
     17 C          61.3501   88.6135   10.2377 C.ar    1  UNL1        0.1652
     18 N          61.4095   87.2578    9.5984 N.ar    1  UNL1       -0.2190
     19 C          66.5531   94.4505   10.9892 C.ar    1  UNL1        0.0536
     20 C          66.1690   95.8962   11.1006 C.ar    1  UNL1        0.0045
     21 C          66.5319   96.8552   10.0057 C.ar    1  UNL1        0.0001
     22 C          67.2788   96.3684    8.7994 C.ar    1  UNL1        0.0000
     23 C          67.6629   94.9227    8.6880 C.ar    1  UNL1        0.0001
     24 C          67.3000   93.9638    9.7829 C.ar    1  UNL1        0.0045
@<TRIPOS>BOND
     1    13    14    1
     2    14    15   ar
     3    15    16   ar
     4    16    17   ar
     5    17     1    1
     6     1     2   ar
     7     2     3   ar
     8     3     4   ar
     9     4     5   ar
    10     5     6    1
    11     6     7    1
    12     7     8    1
    13     8     9   am
    14     9    10    2
    15     9    19    1
    16    19    20   ar
    17    20    21   ar
    18    21    22   ar
    19    22    23   ar
    20    23    24   ar
    21     8    11    1
    22    11    12    1
    23    17    18   ar
    24    18    14   ar
    25     5     1   ar
    26    24    19   ar
    27    11     4    1
@<TRIPOS>MOLECULE
*****
 24 27 0 0 0
SMALL
GASTEIGER

@<TRIPOS>ATOM
      1 C          65.7793   93.4392   12.0520 C.ar    1  UNL1        0.1917
      2 N          66.2744   93.2249   13.4516 N.ar    1  UNL1       -0.1268
      3 N          65.6824   91.9445   13.9616 N.ar    1  UNL1       -0.1316
      4 C          64.8214   91.3675   12.8773 C.ar    1  UNL1        0.1615
      5 N          64.8813   92.2913   11.6970 N.ar    1  UNL1       -0.2940
      6 C          64.1105   91.9680   10.4516 C.3     1  UNL1        0.1302
      7 C          63.2797   90.7207   10.3863 C.3     1  UNL1        0.1186
      8 N          63.2198   89.7969   11.5666 N.am    1  UNL1       -0.2688
      9 C          62.3890   88.5497   11.5014 C.2     1  UNL1        0.2493
     10 O          62.3291   87.6259   12.6816 O.2     1  UNL1       -0.2699
     11 C          63.9907   90.1203   12.8121 C.3     1  UNL1        0.1343
     12 C          63.9308   89.1965   13.9923 C.3     1  UNL1        0.0298
     13 C          67.2154   96.2885    7.8449 C.3     1  UNL1        0.0744
     14 C          66.7821   95.9077    9.2296 C.ar    1  UNL1        0.1481
     15 N          66.5167   96.8548   10.3621 N.ar    1  UNL1       -0.1929
     16 S          66.1087   96.0453   11.5573 S.2     1  UNL1        0.0369
     17 C          66.1220   94.5980   11.1634 C.ar    1  UNL1        0.1652
     18 N          66.5382   94.5130    9.7248 N.ar    1  UNL1       -0.2190
     19 C          61.6181   88.2263   10.2559 C.ar    1  UNL1        0.0536
     20 C          60.6221   89.2083    9.7142 C.ar    1  UNL1        0.0045
     21 C          59.8512   88.8849    8.4687 C.ar    1  UNL1        0.0001
     22 C          60.0764   87.5795    7.7650 C.ar    1  UNL1        0.0000
     23 C          61.0725   86.5975    8.3067 C.ar    1  UNL1        0.0001
     24 C          61.8434   86.9209    9.5522 C.ar    1  UNL1        0.0045
@<TRIPOS>BOND
     1    13    14    1
     2    14    15   ar
     3    15    16   ar
     4    16    17   ar
     5    17     1    1
     6     1     2   ar
     7     2     3   ar
     8     3     4   ar
     9     4     5   ar
    10     5     6    1
    11     6     7    1
    12     7     8    1
    13     8     9   am
    14     9    10    2
    15     9    19    1
    16    19    20   ar
    17    20    21   ar
    18    21    22   ar
    19    22    23   ar
    20    23    24   ar
    21     8    11    1
    22    11    12    1
    23    17    18   ar
    24    18    14   ar
    25     5     1   ar
    26    24    19   ar
    27    11     4    1
@<TRIPOS>MOLECULE
*****
 24 27 0 0 0
SMALL
GASTEIGER

@<TRIPOS>ATOM
      1 C          63.1790   84.8606   15.4938 C.ar    1  UNL1        0.1917
      2 N          62.7005   84.8900   16.9151 N.ar    1  UNL1       -0.1268
      3 N          62.7024   86.3176   17.3754 N.ar    1  UNL1       -0.1316
      4 C          63.1821   87.1706   16.2386 C.ar    1  UNL1        0.1615
      5 N          63.4767   86.2701   15.0757 N.ar    1  UNL1       -0.2940
      6 C          63.9779   86.8499   13.7863 C.3     1  UNL1        0.1302
      7 C          64.1845   88.3303   13.6598 C.3     1  UNL1        0.1186
      8 N          63.8899   89.2307   14.8227 N.am    1  UNL1       -0.2688
      9 C          64.0966   90.7110   14.6963 C.2     1  UNL1        0.2493
     10 O          63.8020   91.6115   15.8592 O.2     1  UNL1       -0.2699
     11 C          63.3887   88.6508   16.1122 C.3     1  UNL1        0.1343
     12 C          63.0941   89.5513   17.2751 C.3     1  UNL1        0.0298
     13 C          62.4515   80.0576   13.4244 C.3     1  UNL1        0.0744
     14 C          62.9985   81.4290   13.6892 C.ar    1  UNL1        0.1481
     15 N          64.1410   82.0775   12.9651 N.ar    1  UNL1       -0.1929
     16 S          64.3476   83.4420   13.5530 S.2     1  UNL1        0.0369
     17 C          63.3329   83.6367   14.6404 C.ar    1  UNL1        0.1652
     18 N          62.4991   82.3926   14.7246 N.ar    1  UNL1       -0.2190
     19 C          64.5978   91.2908   13.4069 C.ar    1  UNL1        0.0536
     20 C          63.7555   91.2055   12.1686 C.ar    1  UNL1        0.0045
     21 C          64.2568   91.7853   10.8792 C.ar    1  UNL1        0.0001
     22 C          65.6002   92.4505   10.8281 C.ar    1  UNL1        0.0000
     23 C          66.4425   92.5359   12.0664 C.ar    1  UNL1        0.0001
     24 C          65.9413   91.9560   13.3557 C.ar    1  UNL1        0.0045
@<TRIPOS>BOND
     1    13    14    1
     2    14    15   ar
     3    15    16   ar
     4    16    17   ar
     5    17     1    1
     6     1     2   ar
     7     2     3   ar
     8     3     4   ar
     9     4     5   ar
    10     5     6    1
    11     6     7    1
    12     7     8    1
    13     8     9   am
    14     9    10    2
    15     9    19    1
    16    19    20   ar
    17    20    21   ar
    18    21    22   ar
    19    22    23   ar
    20    23    24   ar
    21     8    11    1
    22    11    12    1
    23    17    18   ar
    24    18    14   ar
    25     5     1   ar
    26    24    19   ar
    27    11     4    1
@<TRIPOS>MOLECULE
*****
 24 27 0 0 0
SMALL
GASTEIGER

@<TRIPOS>ATOM
      1 C          64.3218   91.0321   13.4441 C.ar    1  UNL1        0.1917
      2 N          63.6540   91.8393   12.3705 N.ar    1  UNL1       -0.1268
      3 N          62.8884   90.8965   11.4902 N.ar    1  UNL1       -0.1316
      4 C          63.0830   89.5066   12.0197 C.ar    1  UNL1        0.1615
      5 N          63.9689   89.5904   13.2272 N.ar    1  UNL1       -0.2940
      6 C          64.3398   88.3431   13.9733 C.3     1  UNL1        0.1302
      7 C          63.8247   87.0120   13.5119 C.3     1  UNL1        0.1186
      8 N          62.9388   86.9282   12.3043 N.am    1  UNL1       -0.2688
      9 C          62.4238   85.5971   11.8429 C.2     1  UNL1        0.2493
     10 O          61.5379   85.5133   10.6353 O.2     1  UNL1       -0.2699
     11 C          62.5680   88.1756   11.5582 C.3     1  UNL1        0.1343
     12 C          61.6821   88.0918   10.3507 C.3     1  UNL1        0.0298
     13 C          68.5247   92.7640   16.1304 C.3     1  UNL1        0.0744
     14 C          67.1220   92.3678   15.7765 C.ar    1  UNL1        0.1481
     15 N          65.9305   92.4366   16.6852 N.ar    1  UNL1       -0.1929
     16 S          64.7365   91.9446   15.9220 S.2     1  UNL1        0.0369
     17 C          65.1901   91.5717   14.5417 C.ar    1  UNL1        0.1652
     18 N          66.6644   91.8333   14.4518 N.ar    1  UNL1       -0.2190
     19 C          62.7947   84.3498   12.5890 C.ar    1  UNL1        0.0536
     20 C          63.6998   83.3367   11.9532 C.ar    1  UNL1        0.0045
     21 C          64.0706   82.0893   12.6993 C.ar    1  UNL1        0.0001
     22 C          63.5364   81.8552   14.0813 C.ar    1  UNL1        0.0000
     23 C          62.6313   82.8684   14.7171 C.ar    1  UNL1        0.0001
     24 C          62.2604   84.1157   13.9710 C.ar    1  UNL1        0.0045
@<TRIPOS>BOND
     1    13    14    1
     2    14    15   ar
     3    15    16   ar
     4    16    17   ar
     5    17     1    1
     6     1     2   ar
     7     2     3   ar
     8     3     4   ar
     9     4     5   ar
    10     5     6    1
    11     6     7    1
    12     7     8    1
    13     8     9   am
    14     9    10    2
    15     9    19    1
    16    19    20   ar
    17    20    21   ar
    18    21    22   ar
    19    22    23   ar
    20    23    24   ar
    21     8    11    1
    22    11    12    1
    23    17    18   ar
    24    18    14   ar
    25     5     1   ar
    26    24    19   ar
    27    11     4    1
@<TRIPOS>MOLECULE
*****
 24 27 0 0 0
SMALL
GASTEIGER

@<TRIPOS>ATOM
      1 C          61.3603   88.8745    9.9939 C.ar    1  UNL1        0.1917
      2 N          62.0317   90.0866   10.5683 N.ar    1  UNL1       -0.1268
      3 N          62.8712   89.6445   11.7301 N.ar    1  UNL1       -0.1316
      4 C          62.7186   88.1592   11.8737 C.ar    1  UNL1        0.1615
      5 N          61.7848   87.6833   10.8006 N.ar    1  UNL1       -0.2940
      6 C          61.4417   86.2268   10.6967 C.3     1  UNL1        0.1302
      7 C          62.0324   85.2461   11.6660 C.3     1  UNL1        0.1186
      8 N          62.9662   85.7220   12.7391 N.am    1  UNL1       -0.2688
      9 C          63.5569   84.7414   13.7083 C.2     1  UNL1        0.2493
     10 O          64.4908   85.2172   14.7814 O.2     1  UNL1       -0.2699
     11 C          63.3093   87.1786   12.8429 C.3     1  UNL1        0.1343
     12 C          64.2431   87.6545   13.9160 C.3     1  UNL1        0.0298
     13 C          58.7195   90.3211    5.6563 C.3     1  UNL1        0.0744
     14 C          59.2142   89.5217    6.8252 C.ar    1  UNL1        0.1481
     15 N          58.7725   88.1371    7.1965 N.ar    1  UNL1       -0.1929
     16 S          59.5227   87.7261    8.4288 S.2     1  UNL1        0.0369
     17 C          60.4280   88.8567    8.8189 C.ar    1  UNL1        0.1652
     18 N          60.2373   89.9664    7.8279 N.ar    1  UNL1       -0.2190
     19 C          63.2138   83.2849   13.6044 C.ar    1  UNL1        0.0536
     20 C          62.1508   82.7000   14.4863 C.ar    1  UNL1        0.0045
     21 C          61.8077   81.2434   14.3824 C.ar    1  UNL1        0.0001
     22 C          62.5276   80.3718   13.3966 C.ar    1  UNL1        0.0000
     23 C          63.5907   80.9567   12.5146 C.ar    1  UNL1        0.0001
     24 C          63.9338   82.4132   12.6185 C.ar    1  UNL1        0.0045
@<TRIPOS>BOND
     1    13    14    1
     2    14    15   ar
     3    15    16   ar
     4    16    17   ar
     5    17     1    1
     6     1     2   ar
     7     2     3   ar
     8     3     4   ar
     9     4     5   ar
    10     5     6    1
    11     6     7    1
    12     7     8    1
    13     8     9   am
    14     9    10    2
    15     9    19    1
    16    19    20   ar
    17    20    21   ar
    18    21    22   ar
    19    22    23   ar
    20    23    24   ar
    21     8    11    1
    22    11    12    1
    23    17    18   ar
    24    18    14   ar
    25     5     1   ar
    26    24    19   ar
    27    11     4    1
@<TRIPOS>MOLECULE
*****
 24 27 0 0 0
SMALL
GASTEIGER

@<TRIPOS>ATOM
      1 C          63.1879   82.9908   13.6697 C.ar    1  UNL1        0.1917
      2 N          62.7725   82.3565   14.9640 N.ar    1  UNL1       -0.1268
      3 N          62.7114   83.4316   16.0083 N.ar    1  UNL1       -0.1316
      4 C          63.0889   84.7302   15.3594 C.ar    1  UNL1        0.1615
      5 N          63.3834   84.4578   13.9141 N.ar    1  UNL1       -0.2940
      6 C          63.7916   85.5807   13.0072 C.3     1  UNL1        0.1302
      7 C          63.9052   86.9761   13.5457 C.3     1  UNL1        0.1186
      8 N          63.6108   87.2486   14.9910 N.am    1  UNL1       -0.2688
      9 C          63.7244   88.6439   15.5295 C.2     1  UNL1        0.2493
     10 O          63.4299   88.9164   16.9749 O.2     1  UNL1       -0.2699
     11 C          63.2026   86.1256   15.8979 C.3     1  UNL1        0.1343
     12 C          62.9081   86.3980   17.3433 C.3     1  UNL1        0.0298
     13 C          62.7900   79.4463    9.7763 C.3     1  UNL1        0.0744
     14 C          63.1919   80.6531   10.5712 C.ar    1  UNL1        0.1481
     15 N          64.1331   81.7313   10.1221 N.ar    1  UNL1       -0.1929
     16 S          64.2462   82.7383   11.2282 S.2     1  UNL1        0.0369
     17 C          63.3748   82.2824   12.3608 C.ar    1  UNL1        0.1652
     18 N          62.7233   80.9937   11.9549 N.ar    1  UNL1       -0.2190
     19 C          64.1326   89.7668   14.6226 C.ar    1  UNL1        0.0536
     20 C          63.2675   90.1406   13.4556 C.ar    1  UNL1        0.0045
     21 C          63.6758   91.2636   12.5487 C.ar    1  UNL1        0.0001
     22 C          64.9490   92.0127   12.8089 C.ar    1  UNL1        0.0000
     23 C          65.8140   91.6389   13.9759 C.ar    1  UNL1        0.0001
     24 C          65.4059   90.5160   14.8828 C.ar    1  UNL1        0.0045
@<TRIPOS>BOND
     1    13    14    1
     2    14    15   ar
     3    15    16   ar
     4    16    17   ar
     5    17     1    1
     6     1     2   ar
     7     2     3   ar
     8     3     4   ar
     9     4     5   ar
    10     5     6    1
    11     6     7    1
    12     7     8    1
    13     8     9   am
    14     9    10    2
    15     9    19    1
    16    19    20   ar
    17    20    21   ar
    18    21    22   ar
    19    22    23   ar
    20    23    24   ar
    21     8    11    1
    22    11    12    1
    23    17    18   ar
    24    18    14   ar
    25     5     1   ar
    26    24    19   ar
    27    11     4    1
@<TRIPOS>MOLECULE
*****
 24 27 0 0 0
SMALL
GASTEIGER

@<TRIPOS>ATOM
      1 C          59.4976   88.6076    7.2273 C.ar    1  UNL1        0.1917
      2 N          59.0750   87.1759    7.0797 N.ar    1  UNL1       -0.1268
      3 N          59.7006   86.3908    8.1943 N.ar    1  UNL1       -0.1316
      4 C          60.5098   87.3373    9.0307 C.ar    1  UNL1        0.1615
      5 N          60.3843   88.7073    8.4330 N.ar    1  UNL1       -0.2940
      6 C          61.0937   89.8686    9.0639 C.3     1  UNL1        0.1302
      7 C          61.9286   89.6599   10.2925 C.3     1  UNL1        0.1186
      8 N          62.0541   88.2898   10.8902 N.am    1  UNL1       -0.2688
      9 C          62.8889   88.0811   12.1187 C.2     1  UNL1        0.2493
     10 O          63.0144   86.7110   12.7164 O.2     1  UNL1       -0.2699
     11 C          61.3446   87.1285   10.2592 C.3     1  UNL1        0.1343
     12 C          61.4701   85.7584   10.8569 C.3     1  UNL1        0.0298
     13 C          59.7453   92.6573    3.8481 C.3     1  UNL1        0.0744
     14 C          59.2167   91.6021    4.7739 C.ar    1  UNL1        0.1481
     15 N          57.7739   91.3665    5.1099 N.ar    1  UNL1       -0.1929
     16 S          57.7035   90.2160    6.0700 S.2     1  UNL1        0.0369
     17 C          59.1028   89.7407    6.3271 C.ar    1  UNL1        0.1652
     18 N          60.0380   90.5973    5.5261 N.ar    1  UNL1       -0.2190
     19 C          63.5983   89.2424   12.7496 C.ar    1  UNL1        0.0536
     20 C          64.1926   89.1037   14.1199 C.ar    1  UNL1        0.0045
     21 C          64.9020   90.2651   14.7508 C.ar    1  UNL1        0.0001
     22 C          65.0172   91.5651   14.0114 C.ar    1  UNL1        0.0000
     23 C          64.4229   91.7038   12.6412 C.ar    1  UNL1        0.0001
     24 C          63.7135   90.5425   12.0103 C.ar    1  UNL1        0.0045
@<TRIPOS>BOND
     1    13    14    1
     2    14    15   ar
     3    15    16   ar
     4    16    17   ar
     5    17     1    1
     6     1     2   ar
     7     2     3   ar
     8     3     4   ar
     9     4     5   ar
    10     5     6    1
    11     6     7    1
    12     7     8    1
    13     8     9   am
    14     9    10    2
    15     9    19    1
    16    19    20   ar
    17    20    21   ar
    18    21    22   ar
    19    22    23   ar
    20    23    24   ar
    21     8    11    1
    22    11    12    1
    23    17    18   ar
    24    18    14   ar
    25     5     1   ar
    26    24    19   ar
    27    11     4    1
@<TRIPOS>MOLECULE
*****
 24 27 0 0 0
SMALL
GASTEIGER

@<TRIPOS>ATOM
      1 C          62.1934   88.6980   11.6953 C.ar    1  UNL1        0.1917
      2 N          62.9808   89.5598   12.6373 N.ar    1  UNL1       -0.1268
      3 N          63.7682   88.6586   13.5416 N.ar    1  UNL1       -0.1316
      4 C          63.4675   87.2399   13.1586 C.ar    1  UNL1        0.1615
      5 N          62.4942   87.2642   12.0175 N.ar    1  UNL1       -0.2940
      6 C          62.0076   85.9777   11.4192 C.3     1  UNL1        0.1302
      7 C          62.4942   84.6667   11.9620 C.3     1  UNL1        0.1186
      8 N          63.4675   84.6424   13.1031 N.am    1  UNL1       -0.2688
      9 C          63.9541   83.3315   13.6459 C.2     1  UNL1        0.2493
     10 O          64.9274   83.3071   14.7871 O.2     1  UNL1       -0.2699
     11 C          63.9541   85.9290   13.7014 C.3     1  UNL1        0.1343
     12 C          64.9274   85.9046   14.8425 C.3     1  UNL1        0.0298
     13 C          59.5604   89.0923    7.1354 C.3     1  UNL1        0.0744
     14 C          60.0575   89.3658    8.5240 C.ar    1  UNL1        0.1481
     15 N          59.6292   90.5008    9.4061 N.ar    1  UNL1       -0.1929
     16 S          60.3772   90.3888   10.7016 S.2     1  UNL1        0.0369
     17 C          61.2678   89.1846   10.6199 C.ar    1  UNL1        0.1652
     18 N          61.0702   88.5523    9.2741 N.ar    1  UNL1       -0.2190
     19 C          63.4675   82.0450   13.0476 C.ar    1  UNL1        0.0536
     20 C          62.8055   81.0169   13.9164 C.ar    1  UNL1        0.0045
     21 C          62.3189   79.7303   13.3181 C.ar    1  UNL1        0.0001
     22 C          62.4943   79.4719   11.8510 C.ar    1  UNL1        0.0000
     23 C          63.1563   80.4999   10.9822 C.ar    1  UNL1        0.0001
     24 C          63.6429   81.7864   11.5805 C.ar    1  UNL1        0.0045
@<TRIPOS>BOND
     1    13    14    1
     2    14    15   ar
     3    15    16   ar
     4    16    17   ar
     5    17     1    1
     6     1     2   ar
     7     2     3   ar
     8     3     4   ar
     9     4     5   ar
    10     5     6    1
    11     6     7    1
    12     7     8    1
    13     8     9   am
    14     9    10    2
    15     9    19    1
    16    19    20   ar
    17    20    21   ar
    18    21    22   ar
    19    22    23   ar
    20    23    24   ar
    21     8    11    1
    22    11    12    1
    23    17    18   ar
    24    18    14   ar
    25     5     1   ar
    26    24    19   ar
    27    11     4    1
@<TRIPOS>MOLECULE
*****
 24 27 0 0 0
SMALL
GASTEIGER

@<TRIPOS>ATOM
      1 C          66.4958   93.5502   11.6018 C.ar    1  UNL1        0.1917
      2 N          66.9374   93.8804   12.9968 N.ar    1  UNL1       -0.1268
      3 N          66.1270   93.0507   13.9480 N.ar    1  UNL1       -0.1316
      4 C          65.1846   92.2077   13.1409 C.ar    1  UNL1        0.1615
      5 N          65.4125   92.5165   11.6908 N.ar    1  UNL1       -0.2940
      6 C          64.6043   91.8164   10.6389 C.3     1  UNL1        0.1302
      7 C          63.5680   90.8075   11.0371 C.3     1  UNL1        0.1186
      8 N          63.3401   90.4988   12.4871 N.am    1  UNL1       -0.2688
      9 C          62.3039   89.4900   12.8853 C.2     1  UNL1        0.2493
     10 O          62.0760   89.1812   14.3354 O.2     1  UNL1       -0.2699
     11 C          64.1484   91.1989   13.5391 C.3     1  UNL1        0.1343
     12 C          63.9205   90.8901   14.9892 C.3     1  UNL1        0.0298
     13 C          67.3438   96.8454    7.5641 C.3     1  UNL1        0.0744
     14 C          67.4314   95.6634    8.4834 C.ar    1  UNL1        0.1481
     15 N          68.3317   94.4762    8.3097 N.ar    1  UNL1       -0.1929
     16 S          68.0908   93.5401    9.4568 S.2     1  UNL1        0.0369
     17 C          67.0416   94.1487   10.3393 C.ar    1  UNL1        0.1652
     18 N          66.6341   95.4610    9.7377 N.ar    1  UNL1       -0.2190
     19 C          61.4957   88.7899   11.8334 C.ar    1  UNL1        0.0536
     20 C          62.1321   87.7365   10.9759 C.ar    1  UNL1        0.0045
     21 C          61.3238   87.0364    9.9240 C.ar    1  UNL1        0.0001
     22 C          59.8790   87.3898    9.7295 C.ar    1  UNL1        0.0000
     23 C          59.2426   88.4433   10.5869 C.ar    1  UNL1        0.0001
     24 C          60.0509   89.1433   11.6388 C.ar    1  UNL1        0.0045
@<TRIPOS>BOND
     1    13    14    1
     2    14    15   ar
     3    15    16   ar
     4    16    17   ar
     5    17     1    1
     6     1     2   ar
     7     2     3   ar
     8     3     4   ar
     9     4     5   ar
    10     5     6    1
    11     6     7    1
    12     7     8    1
    13     8     9   am
    14     9    10    2
    15     9    19    1
    16    19    20   ar
    17    20    21   ar
    18    21    22   ar
    19    22    23   ar
    20    23    24   ar
    21     8    11    1
    22    11    12    1
    23    17    18   ar
    24    18    14   ar
    25     5     1   ar
    26    24    19   ar
    27    11     4    1
