@<TRIPOS>MOLECULE
*****
 24 27 0 0 0
SMALL
GASTEIGER

@<TRIPOS>ATOM
      1 N          64.1898   90.9563   13.7227 N.ar    1  UNL1       -0.3087
      2 C          65.3551   91.7090   13.1522 C.ar    1  UNL1        0.1493
      3 N          65.1090   91.9017   11.6851 N.ar    1  UNL1       -0.2284
      4 C          63.7916   91.2681   11.3489 C.ar    1  UNL1        0.0984
      5 C          63.0360   91.1476   10.0588 C.ar    1  UNL1        0.0206
      6 C          61.7122   90.4429   10.0280 C.ar    1  UNL1        0.0016
      7 C          61.1441   89.8587   11.2873 C.ar    1  UNL1        0.0016
      8 C          61.8997   89.9791   12.5774 C.ar    1  UNL1        0.0188
      9 C          63.2235   90.6838   12.6082 C.ar    1  UNL1        0.0789
     10 C          66.5557   92.1854   13.9149 C.3     1  UNL1        0.1869
     11 C          67.9342   91.8330   13.4401 C.3     1  UNL1        0.1064
     12 N          69.1347   92.3094   14.2028 N.3     1  UNL1       -0.2930
     13 C          68.9568   93.1382   15.4402 C.3     1  UNL1        0.1011
     14 C          67.5783   93.4906   15.9150 C.3     1  UNL1        0.1597
     15 O          66.3777   93.0142   15.1524 O.3     1  UNL1       -0.3458
     16 H          69.6941   92.8641   13.5548 H       1  UNL1        0.1234
     17 C          64.0204   90.5478   15.1560 C.3     1  UNL1        0.1340
     18 F          63.3796   84.7518   16.5682 F       1  UNL1       -0.2042
     19 C          63.5398   86.2008   16.2152 C.ar    1  UNL1        0.1401
     20 C          64.2903   86.5925   14.9769 C.ar    1  UNL1        0.0294
     21 C          64.4505   88.0415   14.6239 C.ar    1  UNL1       -0.0001
     22 C          63.8602   89.0989   15.5091 C.ar    1  UNL1        0.0006
     23 C          63.1097   88.7071   16.7474 C.ar    1  UNL1       -0.0001
     24 C          62.9495   87.2581   17.1004 C.ar    1  UNL1        0.0294
@<TRIPOS>BOND
     1    18    19    1
     2    19    20   ar
     3    20    21   ar
     4    21    22   ar
     5    22    17    1
     6    17     1    1
     7     1     2   ar
     8    10     2    1
     9    10    11    1
    10    11    12    1
    11    12    13    1
    12    13    14    1
    13    14    15    1
    14     2     3   ar
    15     3     4   ar
    16     4     5   ar
    17     5     6   ar
    18     6     7   ar
    19     7     8   ar
    20     8     9   ar
    21    22    23   ar
    22    23    24   ar
    23    24    19   ar
    24     9     1   ar
    25    15    10    1
    26     9     4   ar
    27    12    16    1
@<TRIPOS>MOLECULE
*****
 24 27 0 0 0
SMALL
GASTEIGER

@<TRIPOS>ATOM
      1 N          62.1502   87.0659   11.7087 N.ar    1  UNL1       -0.3087
      2 C          63.0225   86.5088   12.7944 C.ar    1  UNL1        0.1493
      3 N          63.8718   87.6255   13.3253 N.ar    1  UNL1       -0.2284
      4 C          63.5245   88.8726   12.5676 C.ar    1  UNL1        0.0984
      5 C          64.0396   90.2784   12.6584 C.ar    1  UNL1        0.0206
      6 C          63.4907   91.3384   11.7500 C.ar    1  UNL1        0.0016
      7 C          62.4267   90.9925   10.7509 C.ar    1  UNL1        0.0016
      8 C          61.9116   89.5867   10.6601 C.ar    1  UNL1        0.0188
      9 C          62.4605   88.5267   11.5685 C.ar    1  UNL1        0.0789
     10 C          63.0420   85.0852   13.2665 C.3     1  UNL1        0.1869
     11 C          63.8399   84.0581   12.5192 C.3     1  UNL1        0.1064
     12 N          63.8595   82.6345   12.9913 N.3     1  UNL1       -0.2930
     13 C          63.0810   82.2379   14.2106 C.3     1  UNL1        0.1011
     14 C          62.2831   83.2649   14.9578 C.3     1  UNL1        0.1597
     15 O          62.2636   84.6886   14.4858 O.3     1  UNL1       -0.3458
     16 H          64.8346   82.3985   13.1749 H       1  UNL1        0.1234
     17 C          61.1443   86.2970   10.9043 C.3     1  UNL1        0.1340
     18 F          62.4942   84.4965    5.3423 F       1  UNL1       -0.2042
     19 C          62.1567   84.9467    6.7328 C.ar    1  UNL1        0.1401
     20 C          63.1667   84.8053    7.8328 C.ar    1  UNL1        0.0294
     21 C          62.8292   85.2554    9.2232 C.ar    1  UNL1       -0.0001
     22 C          61.4817   85.8469    9.5139 C.ar    1  UNL1        0.0006
     23 C          60.4717   85.9882    8.4139 C.ar    1  UNL1       -0.0001
     24 C          60.8092   85.5381    7.0234 C.ar    1  UNL1        0.0294
@<TRIPOS>BOND
     1    18    19    1
     2    19    20   ar
     3    20    21   ar
     4    21    22   ar
     5    22    17    1
     6    17     1    1
     7     1     2   ar
     8    10     2    1
     9    10    11    1
    10    11    12    1
    11    12    13    1
    12    13    14    1
    13    14    15    1
    14     2     3   ar
    15     3     4   ar
    16     4     5   ar
    17     5     6   ar
    18     6     7   ar
    19     7     8   ar
    20     8     9   ar
    21    22    23   ar
    22    23    24   ar
    23    24    19   ar
    24     9     1   ar
    25    15    10    1
    26     9     4   ar
    27    12    16    1
@<TRIPOS>MOLECULE
*****
 24 27 0 0 0
SMALL
GASTEIGER

@<TRIPOS>ATOM
      1 N          61.3817   87.7198   10.8739 N.ar    1  UNL1       -0.3087
      2 C          61.9802   89.0800   11.0780 C.ar    1  UNL1        0.1493
      3 N          61.5144   89.9640    9.9593 N.ar    1  UNL1       -0.2284
      4 C          60.6280   89.1501    9.0637 C.ar    1  UNL1        0.0984
      5 C          59.8851   89.4928    7.8066 C.ar    1  UNL1        0.0206
      6 C          59.0600   88.4485    7.1147 C.ar    1  UNL1        0.0016
      7 C          58.9780   87.0615    7.6800 C.ar    1  UNL1        0.0016
      8 C          59.7210   86.7188    8.9371 C.ar    1  UNL1        0.0188
      9 C          60.5460   87.7631    9.6290 C.ar    1  UNL1        0.0789
     10 C          62.8855   89.4851   12.2033 C.3     1  UNL1        0.1869
     11 C          63.2800   90.9228   12.3681 C.3     1  UNL1        0.1064
     12 N          64.1854   91.3279   13.4934 N.3     1  UNL1       -0.2930
     13 C          64.6962   90.2952   14.4540 C.3     1  UNL1        0.1011
     14 C          64.3016   88.8575   14.2892 C.3     1  UNL1        0.1597
     15 O          63.3963   88.4524   13.1639 O.3     1  UNL1       -0.3458
     16 H          63.6773   92.0183   14.0462 H       1  UNL1        0.1234
     17 C          61.5834   86.5259   11.7592 C.3     1  UNL1        0.1340
     18 F          64.7388   81.8221    9.7799 F       1  UNL1       -0.2042
     19 C          63.9500   82.9980   10.2748 C.ar    1  UNL1        0.1401
     20 C          63.5681   84.0970    9.3279 C.ar    1  UNL1        0.0294
     21 C          62.7793   85.2729    9.8227 C.ar    1  UNL1       -0.0001
     22 C          62.3722   85.3500   11.2645 C.ar    1  UNL1        0.0006
     23 C          62.7541   84.2510   12.2113 C.ar    1  UNL1       -0.0001
     24 C          63.5430   83.0751   11.7164 C.ar    1  UNL1        0.0294
@<TRIPOS>BOND
     1    18    19    1
     2    19    20   ar
     3    20    21   ar
     4    21    22   ar
     5    22    17    1
     6    17     1    1
     7     1     2   ar
     8    10     2    1
     9    10    11    1
    10    11    12    1
    11    12    13    1
    12    13    14    1
    13    14    15    1
    14     2     3   ar
    15     3     4   ar
    16     4     5   ar
    17     5     6   ar
    18     6     7   ar
    19     7     8   ar
    20     8     9   ar
    21    22    23   ar
    22    23    24   ar
    23    24    19   ar
    24     9     1   ar
    25    15    10    1
    26     9     4   ar
    27    12    16    1
@<TRIPOS>MOLECULE
*****
 24 27 0 0 0
SMALL
GASTEIGER

@<TRIPOS>ATOM
      1 N          63.1025   84.0214   12.9912 N.ar    1  UNL1       -0.3087
      2 C          62.8416   84.0089   14.4683 C.ar    1  UNL1        0.1493
      3 N          62.5567   82.5939   14.8766 N.ar    1  UNL1       -0.2284
      4 C          62.6415   81.7319   13.6520 C.ar    1  UNL1        0.0984
      5 C          62.4552   80.2577   13.4474 C.ar    1  UNL1        0.0206
      6 C          62.6061   79.6657   12.0775 C.ar    1  UNL1        0.0016
      7 C          62.9434   80.5479   10.9122 C.ar    1  UNL1        0.0016
      8 C          63.1297   82.0221   11.1168 C.ar    1  UNL1        0.0188
      9 C          62.9788   82.6142   12.4867 C.ar    1  UNL1        0.0789
     10 C          62.8620   85.2018   15.3773 C.3     1  UNL1        0.1869
     11 C          62.0270   85.2097   16.6234 C.3     1  UNL1        0.1064
     12 N          62.0475   86.4026   17.5324 N.3     1  UNL1       -0.2930
     13 C          62.9029   87.5878   17.1955 C.3     1  UNL1        0.1011
     14 C          63.7379   87.5800   15.9494 C.3     1  UNL1        0.1597
     15 O          63.7175   86.3870   15.0403 O.3     1  UNL1       -0.3458
     16 H          62.3520   86.0704   18.4475 H       1  UNL1        0.1234
     17 C          63.4296   85.2290   12.1638 C.3     1  UNL1        0.1340
     18 F          60.0391   86.6189    7.4128 F       1  UNL1       -0.2042
     19 C          60.8867   86.2714    8.6005 C.ar    1  UNL1        0.1401
     20 C          60.4642   86.7000    9.9745 C.ar    1  UNL1        0.0294
     21 C          61.3119   86.3525   11.1622 C.ar    1  UNL1       -0.0001
     22 C          62.5820   85.5765   10.9761 C.ar    1  UNL1        0.0006
     23 C          63.0044   85.1479    9.6020 C.ar    1  UNL1       -0.0001
     24 C          62.1568   85.4954    8.4143 C.ar    1  UNL1        0.0294
@<TRIPOS>BOND
     1    18    19    1
     2    19    20   ar
     3    20    21   ar
     4    21    22   ar
     5    22    17    1
     6    17     1    1
     7     1     2   ar
     8    10     2    1
     9    10    11    1
    10    11    12    1
    11    12    13    1
    12    13    14    1
    13    14    15    1
    14     2     3   ar
    15     3     4   ar
    16     4     5   ar
    17     5     6   ar
    18     6     7   ar
    19     7     8   ar
    20     8     9   ar
    21    22    23   ar
    22    23    24   ar
    23    24    19   ar
    24     9     1   ar
    25    15    10    1
    26     9     4   ar
    27    12    16    1
@<TRIPOS>MOLECULE
*****
 24 27 0 0 0
SMALL
GASTEIGER

@<TRIPOS>ATOM
      1 N          63.8916   90.6095   14.4078 N.ar    1  UNL1       -0.3087
      2 C          63.5041   90.5709   12.9593 C.ar    1  UNL1        0.1493
      3 N          64.4048   91.5102   12.2134 N.ar    1  UNL1       -0.2284
      4 C          65.3490   92.1293   13.2009 C.ar    1  UNL1        0.0984
      5 C          66.4565   93.1280   13.0403 C.ar    1  UNL1        0.0206
      6 C          67.2469   93.5700   14.2361 C.ar    1  UNL1        0.0016
      7 C          66.9298   93.0133   15.5924 C.ar    1  UNL1        0.0016
      8 C          65.8222   92.0146   15.7529 C.ar    1  UNL1        0.0188
      9 C          65.0318   91.5726   14.5572 C.ar    1  UNL1        0.0789
     10 C          62.4082   89.7391   12.3616 C.3     1  UNL1        0.1869
     11 C          62.7473   88.5496   11.5130 C.3     1  UNL1        0.1064
     12 N          61.6515   87.7178   10.9153 N.3     1  UNL1       -0.2930
     13 C          60.2166   88.0754   11.1662 C.3     1  UNL1        0.1011
     14 C          59.8775   89.2649   12.0148 C.3     1  UNL1        0.1597
     15 O          60.9733   90.0967   12.6125 O.3     1  UNL1       -0.3458
     16 H          61.7825   86.7667   11.2599 H       1  UNL1        0.1234
     17 C          63.2513   89.8230   15.5131 C.3     1  UNL1        0.1340
     18 F          64.3084   83.9378   16.0092 F       1  UNL1       -0.2042
     19 C          64.0441   85.4091   15.8852 C.ar    1  UNL1        0.1401
     20 C          64.6332   86.1832   14.7434 C.ar    1  UNL1        0.0294
     21 C          64.3689   87.6545   14.6194 C.ar    1  UNL1       -0.0001
     22 C          63.5156   88.3518   15.6371 C.ar    1  UNL1        0.0006
     23 C          62.9265   87.5775   16.7789 C.ar    1  UNL1       -0.0001
     24 C          63.1908   86.1062   16.9029 C.ar    1  UNL1        0.0294
@<TRIPOS>BOND
     1    18    19    1
     2    19    20   ar
     3    20    21   ar
     4    21    22   ar
     5    22    17    1
     6    17     1    1
     7     1     2   ar
     8    10     2    1
     9    10    11    1
    10    11    12    1
    11    12    13    1
    12    13    14    1
    13    14    15    1
    14     2     3   ar
    15     3     4   ar
    16     4     5   ar
    17     5     6   ar
    18     6     7   ar
    19     7     8   ar
    20     8     9   ar
    21    22    23   ar
    22    23    24   ar
    23    24    19   ar
    24     9     1   ar
    25    15    10    1
    26     9     4   ar
    27    12    16    1
@<TRIPOS>MOLECULE
*****
 24 27 0 0 0
SMALL
GASTEIGER

@<TRIPOS>ATOM
      1 N          63.6885   89.3360   12.6575 N.ar    1  UNL1       -0.3087
      2 C          63.7804   90.8168   12.4368 C.ar    1  UNL1        0.1493
      3 N          62.7135   91.2065   11.4571 N.ar    1  UNL1       -0.2284
      4 C          61.9622   89.9665   11.0723 C.ar    1  UNL1        0.0984
      5 C          60.8073   89.7407   10.1423 C.ar    1  UNL1        0.0206
      6 C          60.2550   88.3589    9.9541 C.ar    1  UNL1        0.0016
      7 C          60.8576   87.2029   10.6960 C.ar    1  UNL1        0.0016
      8 C          62.0125   87.4287   11.6261 C.ar    1  UNL1        0.0188
      9 C          62.5648   88.8105   11.8143 C.ar    1  UNL1        0.0789
     10 C          64.7661   91.7450   13.0825 C.3     1  UNL1        0.1869
     11 C          65.5845   92.6758   12.2375 C.3     1  UNL1        0.1064
     12 N          66.5702   93.6039   12.8831 N.3     1  UNL1       -0.2930
     13 C          66.7376   93.6014   14.3737 C.3     1  UNL1        0.1011
     14 C          65.9192   92.6706   15.2187 C.3     1  UNL1        0.1597
     15 O          64.9335   91.7425   14.5731 O.3     1  UNL1       -0.3458
     16 H          66.2994   94.5512   12.6189 H       1  UNL1        0.1234
     17 C          64.5662   88.5234   13.5627 C.3     1  UNL1        0.1340
     18 F          62.4248   86.4900   18.7856 F       1  UNL1       -0.2042
     19 C          62.9602   86.9983   17.4799 C.ar    1  UNL1        0.1401
     20 C          62.9386   88.4682   17.1818 C.ar    1  UNL1        0.0294
     21 C          63.4739   88.9766   15.8760 C.ar    1  UNL1       -0.0001
     22 C          64.0309   88.0150   14.8683 C.ar    1  UNL1        0.0006
     23 C          64.0524   86.5451   15.1665 C.ar    1  UNL1       -0.0001
     24 C          63.5171   86.0368   16.4723 C.ar    1  UNL1        0.0294
@<TRIPOS>BOND
     1    18    19    1
     2    19    20   ar
     3    20    21   ar
     4    21    22   ar
     5    22    17    1
     6    17     1    1
     7     1     2   ar
     8    10     2    1
     9    10    11    1
    10    11    12    1
    11    12    13    1
    12    13    14    1
    13    14    15    1
    14     2     3   ar
    15     3     4   ar
    16     4     5   ar
    17     5     6   ar
    18     6     7   ar
    19     7     8   ar
    20     8     9   ar
    21    22    23   ar
    22    23    24   ar
    23    24    19   ar
    24     9     1   ar
    25    15    10    1
    26     9     4   ar
    27    12    16    1
@<TRIPOS>MOLECULE
*****
 24 27 0 0 0
SMALL
GASTEIGER

@<TRIPOS>ATOM
      1 N          63.6079   90.0710   12.9746 N.ar    1  UNL1       -0.3087
      2 C          64.3318   89.6533   14.2202 C.ar    1  UNL1        0.1493
      3 N          65.5609   90.5035   14.3491 N.ar    1  UNL1       -0.2284
      4 C          65.5966   91.4466   13.1832 C.ar    1  UNL1        0.0984
      5 C          66.5723   92.5141   12.7854 C.ar    1  UNL1        0.0206
      6 C          66.3409   93.3145   11.5380 C.ar    1  UNL1        0.0016
      7 C          65.1339   93.0472   10.6885 C.ar    1  UNL1        0.0016
      8 C          64.1582   91.9796   11.0863 C.ar    1  UNL1        0.0188
      9 C          64.3896   91.1793   12.3337 C.ar    1  UNL1        0.0789
     10 C          63.9021   88.5748   15.1700 C.3     1  UNL1        0.1869
     11 C          63.1479   88.9304   16.4169 C.3     1  UNL1        0.1064
     12 N          62.7182   87.8519   17.3668 N.3     1  UNL1       -0.2930
     13 C          63.0427   86.4179   17.0698 C.3     1  UNL1        0.1011
     14 C          63.7969   86.0624   15.8229 C.3     1  UNL1        0.1597
     15 O          64.2266   87.1408   14.8730 O.3     1  UNL1       -0.3458
     16 H          61.7030   87.9143   17.4434 H       1  UNL1        0.1234
     17 C          62.3272   89.4836   12.4601 C.3     1  UNL1        0.1340
     18 F          62.4688   84.8611    8.6375 F       1  UNL1       -0.2042
     19 C          62.4334   86.0167    9.5932 C.ar    1  UNL1        0.1401
     20 C          62.1868   87.4053    9.0821 C.ar    1  UNL1        0.0294
     21 C          62.1514   88.5608   10.0378 C.ar    1  UNL1       -0.0001
     22 C          62.3626   88.3280   11.5046 C.ar    1  UNL1        0.0006
     23 C          62.6093   86.9394   12.0155 C.ar    1  UNL1       -0.0001
     24 C          62.6447   85.7838   11.0598 C.ar    1  UNL1        0.0294
@<TRIPOS>BOND
     1    18    19    1
     2    19    20   ar
     3    20    21   ar
     4    21    22   ar
     5    22    17    1
     6    17     1    1
     7     1     2   ar
     8    10     2    1
     9    10    11    1
    10    11    12    1
    11    12    13    1
    12    13    14    1
    13    14    15    1
    14     2     3   ar
    15     3     4   ar
    16     4     5   ar
    17     5     6   ar
    18     6     7   ar
    19     7     8   ar
    20     8     9   ar
    21    22    23   ar
    22    23    24   ar
    23    24    19   ar
    24     9     1   ar
    25    15    10    1
    26     9     4   ar
    27    12    16    1
@<TRIPOS>MOLECULE
*****
 24 27 0 0 0
SMALL
GASTEIGER

@<TRIPOS>ATOM
      1 N          62.3685   88.1512   11.9196 N.ar    1  UNL1       -0.3087
      2 C          61.8262   87.2435   10.8556 C.ar    1  UNL1        0.1493
      3 N          62.3053   85.8519   11.1451 N.ar    1  UNL1       -0.2284
      4 C          63.1437   85.8995   12.3880 C.ar    1  UNL1        0.0984
      5 C          63.8766   84.8324   13.1458 C.ar    1  UNL1        0.0206
      6 C          64.6485   85.1864   14.3822 C.ar    1  UNL1        0.0016
      7 C          64.6876   86.6074   14.8609 C.ar    1  UNL1        0.0016
      8 C          63.9547   87.6745   14.1031 C.ar    1  UNL1        0.0188
      9 C          63.1828   87.3205   12.8667 C.ar    1  UNL1        0.0789
     10 C          60.9574   87.6552    9.7042 C.3     1  UNL1        0.1869
     11 C          60.8995   89.0944    9.2854 C.3     1  UNL1        0.1064
     12 N          60.0307   89.5061    8.1340 N.3     1  UNL1       -0.2930
     13 C          59.2197   88.4786    7.4015 C.3     1  UNL1        0.1011
     14 C          59.2776   87.0395    7.8203 C.3     1  UNL1        0.1597
     15 O          60.1464   86.6278    8.9717 O.3     1  UNL1       -0.3458
     16 H          60.6425   89.9441    7.4454 H       1  UNL1        0.1234
     17 C          62.1372   89.6299   12.0191 C.3     1  UNL1        0.1340
     18 F          66.7909   93.4131   11.8454 F       1  UNL1       -0.2042
     19 C          65.6275   92.4673   11.8889 C.ar    1  UNL1        0.1401
     20 C          64.8370   92.1930   10.6438 C.ar    1  UNL1        0.0294
     21 C          63.6736   91.2472   10.6873 C.ar    1  UNL1       -0.0001
     22 C          63.3006   90.5756   11.9757 C.ar    1  UNL1        0.0006
     23 C          64.0910   90.8499   13.2207 C.ar    1  UNL1       -0.0001
     24 C          65.2545   91.7957   13.1772 C.ar    1  UNL1        0.0294
@<TRIPOS>BOND
     1    18    19    1
     2    19    20   ar
     3    20    21   ar
     4    21    22   ar
     5    22    17    1
     6    17     1    1
     7     1     2   ar
     8    10     2    1
     9    10    11    1
    10    11    12    1
    11    12    13    1
    12    13    14    1
    13    14    15    1
    14     2     3   ar
    15     3     4   ar
    16     4     5   ar
    17     5     6   ar
    18     6     7   ar
    19     7     8   ar
    20     8     9   ar
    21    22    23   ar
    22    23    24   ar
    23    24    19   ar
    24     9     1   ar
    25    15    10    1
    26     9     4   ar
    27    12    16    1
@<TRIPOS>MOLECULE
*****
 24 27 0 0 0
SMALL
GASTEIGER

@<TRIPOS>ATOM
      1 N          63.0111   85.9176   12.3454 N.ar    1  UNL1       -0.3087
      2 C          63.3835   85.1124   13.5549 C.ar    1  UNL1        0.1493
      3 N          63.8983   86.0573   14.6001 N.ar    1  UNL1       -0.2284
      4 C          63.8440   87.4463   14.0364 C.ar    1  UNL1        0.0984
      5 C          64.2231   88.7785   14.6121 C.ar    1  UNL1        0.0206
      6 C          64.0538   90.0244   13.7942 C.ar    1  UNL1        0.0016
      7 C          63.5054   89.9381   12.4007 C.ar    1  UNL1        0.0016
      8 C          63.1264   88.6059   11.8251 C.ar    1  UNL1        0.0188
      9 C          63.2957   87.3599   12.6429 C.ar    1  UNL1        0.0789
     10 C          63.2624   83.6239   13.6948 C.3     1  UNL1        0.1869
     11 C          62.3169   83.0397   14.7021 C.3     1  UNL1        0.1064
     12 N          62.1958   81.5511   14.8420 N.3     1  UNL1       -0.2930
     13 C          63.0202   80.6468   13.9746 C.3     1  UNL1        0.1011
     14 C          63.9657   81.2310   12.9673 C.3     1  UNL1        0.1597
     15 O          64.0868   82.7195   12.8274 O.3     1  UNL1       -0.3458
     16 H          61.2187   81.3174   14.6662 H       1  UNL1        0.1234
     17 C          62.4521   85.3755   11.0633 C.3     1  UNL1        0.1340
     18 F          58.8514   88.7820    7.6824 F       1  UNL1       -0.2042
     19 C          59.7515   87.9304    8.5277 C.ar    1  UNL1        0.1401
     20 C          60.6998   86.9668    7.8778 C.ar    1  UNL1        0.0294
     21 C          61.6000   86.1152    8.7230 C.ar    1  UNL1       -0.0001
     22 C          61.5520   86.2271   10.2182 C.ar    1  UNL1        0.0006
     23 C          60.6037   87.1907   10.8679 C.ar    1  UNL1       -0.0001
     24 C          59.7035   88.0423   10.0227 C.ar    1  UNL1        0.0294
@<TRIPOS>BOND
     1    18    19    1
     2    19    20   ar
     3    20    21   ar
     4    21    22   ar
     5    22    17    1
     6    17     1    1
     7     1     2   ar
     8    10     2    1
     9    10    11    1
    10    11    12    1
    11    12    13    1
    12    13    14    1
    13    14    15    1
    14     2     3   ar
    15     3     4   ar
    16     4     5   ar
    17     5     6   ar
    18     6     7   ar
    19     7     8   ar
    20     8     9   ar
    21    22    23   ar
    22    23    24   ar
    23    24    19   ar
    24     9     1   ar
    25    15    10    1
    26     9     4   ar
    27    12    16    1
