@<TRIPOS>MOLECULE
*****
 37 39 0 0 0
SMALL
GASTEIGER

@<TRIPOS>ATOM
      1 C          63.0461   85.2015   13.5374 C.3     1  UNL1        0.1777
      2 N          63.3826   84.4922   12.2593 N.ar    1  UNL1       -0.2921
      3 C          64.2714   83.2914   12.1250 C.ar    1  UNL1        0.1982
      4 N          64.3274   82.9162   10.6737 N.ar    1  UNL1       -0.2138
      5 C          63.4732   83.8851    9.9111 C.ar    1  UNL1        0.0996
      6 C          63.1516   84.0063    8.4510 C.ar    1  UNL1        0.0161
      7 C          62.2461   85.1015    7.9709 C.ar    1  UNL1       -0.0242
      8 C          61.9245   85.2228    6.5108 C.3     1  UNL1        0.0307
      9 C          61.6622   86.0755    8.9509 C.ar    1  UNL1       -0.0243
     10 C          60.7567   87.1708    8.4707 C.3     1  UNL1        0.0307
     11 C          61.9837   85.9543   10.4109 C.ar    1  UNL1        0.0142
     12 C          62.8892   84.8591   10.8911 C.ar    1  UNL1        0.0799
     13 N          64.9798   82.5891   13.2452 N.pl3   1  UNL1       -0.3042
     14 H          65.7618   83.0078   13.6722 H       1  UNL1        0.1496
     15 C          64.4968   81.2489   13.7147 C.3     1  UNL1        0.0921
     16 C          63.0621   80.8577   13.5182 C.3     1  UNL1        0.0530
     17 C          61.9845   81.5356   14.3114 C.3     1  UNL1        0.1389
     18 O          62.3486   82.5220   15.3813 O.3     1  UNL1       -0.3819
     19 H          62.8143   82.0639   16.0984 H       1  UNL1        0.2104
     20 C          64.0105   86.1898   14.1230 C.2     1  UNL1        0.1958
     21 O          65.0763   85.7262   15.0713 O.2     1  UNL1       -0.2893
     22 C          63.7067   90.5458   13.0354 C.ar    1  UNL1        0.1306
     23 C          62.9880   89.5161   12.2150 C.ar    1  UNL1        0.0109
     24 C          63.0893   88.0641   12.5776 C.ar    1  UNL1        0.0016
     25 C          63.9092   87.6418   13.7605 C.ar    1  UNL1        0.0362
     26 C          64.6279   88.6716   14.5809 C.ar    1  UNL1        0.0016
     27 C          64.5267   90.1236   14.2183 C.ar    1  UNL1        0.0109
     28 C          62.1681   89.9384   11.0321 C.3     1  UNL1        0.0218
     29 C          63.3942   89.9011   10.1689 C.3     1  UNL1        0.0045
     30 C          60.9419   89.9757   11.8953 C.3     1  UNL1        0.0045
     31 C          61.3481   90.3606    9.8491 C.3     1  UNL1        0.0045
     32 C          65.2454   91.1533   15.0388 C.3     1  UNL1        0.0218
     33 C          66.4359   91.0443   14.1328 C.3     1  UNL1        0.0045
     34 C          64.0549   91.2623   15.9449 C.3     1  UNL1        0.0045
     35 C          65.9641   92.1830   15.8593 C.3     1  UNL1        0.0045
     36 C          64.6120   92.6112   11.7451 C.3     1  UNL1        0.2524
     37 O          63.6055   91.9979   12.6729 O.3     1  UNL1       -0.4721
@<TRIPOS>BOND
     1    36    37    1
     2    37    22    1
     3    22    23   ar
     4    23    28    1
     5    28    29    1
     6    28    30    1
     7    28    31    1
     8    23    24   ar
     9    24    25   ar
    10    25    20    1
    11    20    21    2
    12    20     1    1
    13     1     2    1
    14     2     3   ar
    15     3    13    1
    16    13    15    1
    17    15    16    1
    18    16    17    1
    19    17    18    1
    20     3     4   ar
    21     4     5   ar
    22     5     6   ar
    23     6     7   ar
    24     7     8    1
    25     7     9   ar
    26     9    10    1
    27     9    11   ar
    28    11    12   ar
    29    25    26   ar
    30    26    27   ar
    31    27    32    1
    32    32    33    1
    33    32    34    1
    34    32    35    1
    35    27    22   ar
    36    12     2   ar
    37    12     5   ar
    38    13    14    1
    39    18    19    1
@<TRIPOS>MOLECULE
*****
 37 39 0 0 0
SMALL
GASTEIGER

@<TRIPOS>ATOM
      1 C          63.0423   85.1973   13.5314 C.3     1  UNL1        0.1777
      2 N          63.3783   84.4944   12.2495 N.ar    1  UNL1       -0.2921
      3 C          64.2740   83.2996   12.1078 C.ar    1  UNL1        0.1982
      4 N          64.3269   82.9297   10.6551 N.ar    1  UNL1       -0.2138
      5 C          63.4639   83.8960    9.8990 C.ar    1  UNL1        0.0996
      6 C          63.1361   84.0202    8.4406 C.ar    1  UNL1        0.0161
      7 C          62.2222   85.1114    7.9676 C.ar    1  UNL1       -0.0242
      8 C          61.8944   85.2357    6.5091 C.3     1  UNL1        0.0307
      9 C          61.6359   86.0785    8.9530 C.ar    1  UNL1       -0.0243
     10 C          60.7219   87.1698    8.4800 C.3     1  UNL1        0.0307
     11 C          61.9637   85.9543   10.4115 C.ar    1  UNL1        0.0142
     12 C          62.8776   84.8630   10.8845 C.ar    1  UNL1        0.0799
     13 N          64.9909   82.5978   13.2229 N.pl3   1  UNL1       -0.3042
     14 H          65.7770   83.0160   13.6429 H       1  UNL1        0.1496
     15 C          64.5102   81.2588   13.6982 C.3     1  UNL1        0.0921
     16 C          63.0665   80.8821   13.5436 C.3     1  UNL1        0.0530
     17 C          62.0133   81.6117   14.3239 C.3     1  UNL1        0.1389
     18 O          62.4115   82.5739   15.4035 O.3     1  UNL1       -0.3819
     19 H          62.8421   82.0898   16.1253 H       1  UNL1        0.2104
     20 C          64.0050   86.1859   14.1193 C.2     1  UNL1        0.1958
     21 O          65.0687   85.7226   15.0702 O.2     1  UNL1       -0.2893
     22 C          63.7025   90.5419   13.0310 C.ar    1  UNL1        0.1306
     23 C          64.5161   90.1202   14.2185 C.ar    1  UNL1        0.0109
     24 C          64.6170   88.6683   14.5813 C.ar    1  UNL1        0.0016
     25 C          63.9042   87.6379   13.7566 C.ar    1  UNL1        0.0362
     26 C          63.0905   88.0595   12.5691 C.ar    1  UNL1        0.0016
     27 C          62.9897   89.5115   12.2063 C.ar    1  UNL1        0.0109
     28 C          65.2290   91.1506   15.0433 C.3     1  UNL1        0.0218
     29 C          64.0447   91.2362   15.9599 C.3     1  UNL1        0.0045
     30 C          66.4132   91.0650   14.1266 C.3     1  UNL1        0.0045
     31 C          65.9418   92.1810   15.8680 C.3     1  UNL1        0.0045
     32 C          62.1760   89.9330   11.0188 C.3     1  UNL1        0.0218
     33 C          63.4062   89.8931   10.1615 C.3     1  UNL1        0.0045
     34 C          60.9456   89.9730   11.8760 C.3     1  UNL1        0.0045
     35 C          61.3622   90.3545    9.8313 C.3     1  UNL1        0.0045
     36 C          64.6173   92.6104   11.7527 C.3     1  UNL1        0.2524
     37 O          63.6016   91.9938   12.6682 O.3     1  UNL1       -0.4721
@<TRIPOS>BOND
     1    36    37    1
     2    37    22    1
     3    22    23   ar
     4    23    28    1
     5    28    29    1
     6    28    30    1
     7    28    31    1
     8    23    24   ar
     9    24    25   ar
    10    25    20    1
    11    20    21    2
    12    20     1    1
    13     1     2    1
    14     2     3   ar
    15     3    13    1
    16    13    15    1
    17    15    16    1
    18    16    17    1
    19    17    18    1
    20     3     4   ar
    21     4     5   ar
    22     5     6   ar
    23     6     7   ar
    24     7     8    1
    25     7     9   ar
    26     9    10    1
    27     9    11   ar
    28    11    12   ar
    29    25    26   ar
    30    26    27   ar
    31    27    32    1
    32    32    33    1
    33    32    34    1
    34    32    35    1
    35    27    22   ar
    36    12     2   ar
    37    12     5   ar
    38    13    14    1
    39    18    19    1
@<TRIPOS>MOLECULE
*****
 37 39 0 0 0
SMALL
GASTEIGER

@<TRIPOS>ATOM
      1 C          64.3115   84.5001   13.0925 C.3     1  UNL1        0.1777
      2 N          63.7199   85.0589   14.3525 N.ar    1  UNL1       -0.2921
      3 C          62.9759   84.2814   15.3975 C.ar    1  UNL1        0.1982
      4 N          62.5645   85.2353   16.4796 N.ar    1  UNL1       -0.2138
      5 C          63.0543   86.6023   16.1033 C.ar    1  UNL1        0.0996
      6 C          62.9423   87.9322   16.7879 C.ar    1  UNL1        0.0161
      7 C          63.5444   89.1531   16.1579 C.ar    1  UNL1       -0.0242
      8 C          63.4325   90.4831   16.8425 C.3     1  UNL1        0.0307
      9 C          64.2585   89.0440   14.8433 C.ar    1  UNL1       -0.0243
     10 C          64.8606   90.2650   14.2133 C.3     1  UNL1        0.0307
     11 C          64.3704   87.7141   14.1587 C.ar    1  UNL1        0.0142
     12 C          63.7684   86.4933   14.7887 C.ar    1  UNL1        0.0799
     13 N          62.6929   82.8087   15.3660 N.pl3   1  UNL1       -0.3042
     14 H          63.2839   82.1836   15.8447 H       1  UNL1        0.1496
     15 C          61.5095   82.2885   14.6052 C.3     1  UNL1        0.0921
     16 C          61.4360   80.8372   14.2332 C.3     1  UNL1        0.0530
     17 C          62.6760   80.1083   13.8075 C.3     1  UNL1        0.1389
     18 O          64.0207   80.7487   13.9854 O.3     1  UNL1       -0.3819
     19 H          64.0859   81.5285   13.4121 H       1  UNL1        0.2104
     20 C          63.4139   83.9990   12.0003 C.2     1  UNL1        0.1958
     21 O          63.1448   82.5295   11.8655 O.2     1  UNL1       -0.2893
     22 C          61.5276   86.9042    9.1275 C.ar    1  UNL1        0.1306
     23 C          61.9350   85.5400    8.6553 C.ar    1  UNL1        0.0109
     24 C          62.5637   84.5716    9.6129 C.ar    1  UNL1        0.0016
     25 C          62.7851   84.9674   11.0427 C.ar    1  UNL1        0.0362
     26 C          62.3778   86.3316   11.5149 C.ar    1  UNL1        0.0016
     27 C          61.7490   87.3000   10.5573 C.ar    1  UNL1        0.0109
     28 C          61.7136   85.1441    7.2256 C.3     1  UNL1        0.0218
     29 C          63.1849   84.9001    7.0653 C.3     1  UNL1        0.0045
     30 C          60.2423   85.3881    7.3858 C.3     1  UNL1        0.0045
     31 C          61.4922   84.7483    5.7958 C.3     1  UNL1        0.0045
     32 C          61.3417   88.6642   11.0296 C.3     1  UNL1        0.0218
     33 C          60.0131   88.1181   11.4614 C.3     1  UNL1        0.0045
     34 C          62.6704   89.2104   10.5979 C.3     1  UNL1        0.0045
     35 C          60.9345   90.0285   11.5019 C.3     1  UNL1        0.0045
     36 C          59.4154   88.0932    8.1925 C.3     1  UNL1        0.2524
     37 O          60.8989   87.8726    8.1700 O.3     1  UNL1       -0.4721
@<TRIPOS>BOND
     1    36    37    1
     2    37    22    1
     3    22    23   ar
     4    23    28    1
     5    28    29    1
     6    28    30    1
     7    28    31    1
     8    23    24   ar
     9    24    25   ar
    10    25    20    1
    11    20    21    2
    12    20     1    1
    13     1     2    1
    14     2     3   ar
    15     3    13    1
    16    13    15    1
    17    15    16    1
    18    16    17    1
    19    17    18    1
    20     3     4   ar
    21     4     5   ar
    22     5     6   ar
    23     6     7   ar
    24     7     8    1
    25     7     9   ar
    26     9    10    1
    27     9    11   ar
    28    11    12   ar
    29    25    26   ar
    30    26    27   ar
    31    27    32    1
    32    32    33    1
    33    32    34    1
    34    32    35    1
    35    27    22   ar
    36    12     2   ar
    37    12     5   ar
    38    13    14    1
    39    18    19    1
@<TRIPOS>MOLECULE
*****
 37 39 0 0 0
SMALL
GASTEIGER

@<TRIPOS>ATOM
      1 C          64.2934   84.4959   13.1068 C.3     1  UNL1        0.1777
      2 N          63.7049   85.0604   14.3658 N.ar    1  UNL1       -0.2921
      3 C          62.9576   84.2889   15.4129 C.ar    1  UNL1        0.1982
      4 N          62.5513   85.2472   16.4929 N.ar    1  UNL1       -0.2138
      5 C          63.0474   86.6110   16.1134 C.ar    1  UNL1        0.0996
      6 C          62.9421   87.9429   16.7950 C.ar    1  UNL1        0.0161
      7 C          63.5498   89.1595   16.1620 C.ar    1  UNL1       -0.0242
      8 C          63.4445   90.4916   16.8437 C.3     1  UNL1        0.0307
      9 C          64.2627   89.0440   14.8473 C.ar    1  UNL1       -0.0243
     10 C          64.8704   90.2607   14.2143 C.3     1  UNL1        0.0307
     11 C          64.3681   87.7121   14.1657 C.ar    1  UNL1        0.0142
     12 C          63.7604   86.4955   14.7987 C.ar    1  UNL1        0.0799
     13 N          62.6676   82.8175   15.3848 N.pl3   1  UNL1       -0.3042
     14 H          63.2314   82.1948   15.8983 H       1  UNL1        0.1496
     15 C          61.5187   82.2948   14.5744 C.3     1  UNL1        0.0921
     16 C          61.4425   80.8357   14.2352 C.3     1  UNL1        0.0530
     17 C          62.6918   80.0788   13.8939 C.3     1  UNL1        0.1389
     18 O          64.0238   80.7665   13.9482 O.3     1  UNL1       -0.3819
     19 H          64.0600   81.4555   13.2664 H       1  UNL1        0.2104
     20 C          63.3928   83.9976   12.0157 C.2     1  UNL1        0.1958
     21 O          63.1162   82.5292   11.8836 O.2     1  UNL1       -0.2893
     22 C          61.5209   86.9074    9.1383 C.ar    1  UNL1        0.1306
     23 C          61.7381   87.3020   10.5691 C.ar    1  UNL1        0.0109
     24 C          62.3621   86.3321   11.5282 C.ar    1  UNL1        0.0016
     25 C          62.7688   84.9675   11.0566 C.ar    1  UNL1        0.0362
     26 C          62.5516   84.5729    9.6258 C.ar    1  UNL1        0.0016
     27 C          61.9276   85.5428    8.6667 C.ar    1  UNL1        0.0109
     28 C          61.3313   88.6666   11.0407 C.3     1  UNL1        0.0218
     29 C          62.6673   89.2081   10.6263 C.3     1  UNL1        0.0045
     30 C          59.9953   88.1251   11.4551 C.3     1  UNL1        0.0045
     31 C          60.9245   90.0312   11.5123 C.3     1  UNL1        0.0045
     32 C          61.7105   85.1480    7.2360 C.3     1  UNL1        0.0218
     33 C          63.1843   84.9201    7.0751 C.3     1  UNL1        0.0045
     34 C          60.2366   85.3759    7.3968 C.3     1  UNL1        0.0045
     35 C          61.4932   84.7533    5.8052 C.3     1  UNL1        0.0045
     36 C          59.4090   88.0674    8.1665 C.3     1  UNL1        0.2524
     37 O          60.8969   87.8772    8.1791 O.3     1  UNL1       -0.4721
@<TRIPOS>BOND
     1    36    37    1
     2    37    22    1
     3    22    23   ar
     4    23    28    1
     5    28    29    1
     6    28    30    1
     7    28    31    1
     8    23    24   ar
     9    24    25   ar
    10    25    20    1
    11    20    21    2
    12    20     1    1
    13     1     2    1
    14     2     3   ar
    15     3    13    1
    16    13    15    1
    17    15    16    1
    18    16    17    1
    19    17    18    1
    20     3     4   ar
    21     4     5   ar
    22     5     6   ar
    23     6     7   ar
    24     7     8    1
    25     7     9   ar
    26     9    10    1
    27     9    11   ar
    28    11    12   ar
    29    25    26   ar
    30    26    27   ar
    31    27    32    1
    32    32    33    1
    33    32    34    1
    34    32    35    1
    35    27    22   ar
    36    12     2   ar
    37    12     5   ar
    38    13    14    1
    39    18    19    1
@<TRIPOS>MOLECULE
*****
 37 39 0 0 0
SMALL
GASTEIGER

@<TRIPOS>ATOM
      1 C          61.2126   87.5523   10.8176 C.3     1  UNL1        0.1777
      2 N          61.8983   88.8856   10.7741 N.ar    1  UNL1       -0.2921
      3 C          61.7703   89.9078    9.6837 C.ar    1  UNL1        0.1982
      4 N          62.6254   91.0848   10.0491 N.ar    1  UNL1       -0.2138
      5 C          63.2819   90.7901   11.3652 C.ar    1  UNL1        0.0996
      6 C          64.2309   91.5837   12.2134 C.ar    1  UNL1        0.0161
      7 C          64.7304   91.0182   13.5098 C.ar    1  UNL1       -0.0242
      8 C          65.6794   91.8119   14.3581 C.3     1  UNL1        0.0307
      9 C          64.2811   89.6591   13.9579 C.ar    1  UNL1       -0.0243
     10 C          64.7807   89.0936   15.2543 C.3     1  UNL1        0.0307
     11 C          63.3321   88.8654   13.1096 C.ar    1  UNL1        0.0142
     12 C          62.8326   89.4309   11.8133 C.ar    1  UNL1        0.0799
     13 N          60.9340   89.7760    8.4455 N.pl3   1  UNL1       -0.3042
     14 H          61.2530   90.1526    7.5936 H       1  UNL1        0.1496
     15 C          59.6116   89.0706    8.5051 C.3     1  UNL1        0.0921
     16 C          59.2423   88.0782    7.4428 C.3     1  UNL1        0.0530
     17 C          58.9157   86.6633    7.8191 C.3     1  UNL1        0.1389
     18 O          59.7855   85.5396    7.3388 O.3     1  UNL1       -0.3819
     19 H          59.7203   85.4700    6.3735 H       1  UNL1        0.2104
     20 C          61.9368   86.3211   10.3601 C.2     1  UNL1        0.1958
     21 O          62.2417   86.1278    8.9041 O.2     1  UNL1       -0.2893
     22 C          63.1950   83.2069   13.3549 C.ar    1  UNL1        0.1306
     23 C          62.8140   82.7981   11.9629 C.ar    1  UNL1        0.0109
     24 C          62.3946   83.8361   10.9646 C.ar    1  UNL1        0.0016
     25 C          62.3562   85.2830   11.3584 C.ar    1  UNL1        0.0362
     26 C          62.7372   85.6919   12.7503 C.ar    1  UNL1        0.0016
     27 C          63.1566   84.6538   13.7486 C.ar    1  UNL1        0.0109
     28 C          62.8524   81.3512   11.5692 C.3     1  UNL1        0.0218
     29 C          63.8312   81.6737   10.4794 C.3     1  UNL1        0.0045
     30 C          61.8735   81.0287   12.6590 C.3     1  UNL1        0.0045
     31 C          62.8907   79.9043   11.1755 C.3     1  UNL1        0.0045
     32 C          63.5377   85.0627   15.1406 C.3     1  UNL1        0.0218
     33 C          62.1814   84.6523   15.6325 C.3     1  UNL1        0.0045
     34 C          64.8941   85.4732   14.6487 C.3     1  UNL1        0.0045
     35 C          63.9188   85.4717   16.5326 C.3     1  UNL1        0.0045
     36 C          64.8744   81.3847   14.1353 C.3     1  UNL1        0.2524
     37 O          63.6145   82.1689   14.3533 O.3     1  UNL1       -0.4721
@<TRIPOS>BOND
     1    36    37    1
     2    37    22    1
     3    22    23   ar
     4    23    28    1
     5    28    29    1
     6    28    30    1
     7    28    31    1
     8    23    24   ar
     9    24    25   ar
    10    25    20    1
    11    20    21    2
    12    20     1    1
    13     1     2    1
    14     2     3   ar
    15     3    13    1
    16    13    15    1
    17    15    16    1
    18    16    17    1
    19    17    18    1
    20     3     4   ar
    21     4     5   ar
    22     5     6   ar
    23     6     7   ar
    24     7     8    1
    25     7     9   ar
    26     9    10    1
    27     9    11   ar
    28    11    12   ar
    29    25    26   ar
    30    26    27   ar
    31    27    32    1
    32    32    33    1
    33    32    34    1
    34    32    35    1
    35    27    22   ar
    36    12     2   ar
    37    12     5   ar
    38    13    14    1
    39    18    19    1
@<TRIPOS>MOLECULE
*****
 37 39 0 0 0
SMALL
GASTEIGER

@<TRIPOS>ATOM
      1 C          61.2405   87.6580   10.8611 C.3     1  UNL1        0.1777
      2 N          61.9346   88.9853   10.7808 N.ar    1  UNL1       -0.2921
      3 C          61.8006   89.9847    9.6702 C.ar    1  UNL1        0.1982
      4 N          62.6678   91.1632   10.0001 N.ar    1  UNL1       -0.2138
      5 C          63.3379   90.8923   11.3145 C.ar    1  UNL1        0.0996
      6 C          64.3021   91.6974   12.1343 C.ar    1  UNL1        0.0161
      7 C          64.8131   91.1564   13.4366 C.ar    1  UNL1       -0.0242
      8 C          65.7774   91.9614   14.2565 C.3     1  UNL1        0.0307
      9 C          64.3600   89.8103   13.9191 C.ar    1  UNL1       -0.0243
     10 C          64.8711   89.2693   15.2216 C.3     1  UNL1        0.0307
     11 C          63.3958   89.0053   13.0993 C.ar    1  UNL1        0.0142
     12 C          62.8847   89.5463   11.7970 C.ar    1  UNL1        0.0799
     13 N          60.9488   89.8322    8.4450 N.pl3   1  UNL1       -0.3042
     14 H          61.2354   90.2340    7.5931 H       1  UNL1        0.1496
     15 C          59.6604   89.0676    8.5176 C.3     1  UNL1        0.0921
     16 C          59.3081   88.0874    7.4382 C.3     1  UNL1        0.0530
     17 C          58.9334   86.6798    7.7965 C.3     1  UNL1        0.1389
     18 O          59.7816   85.5352    7.3269 O.3     1  UNL1       -0.3819
     19 H          59.7356   85.4743    6.3599 H       1  UNL1        0.2104
     20 C          61.9375   86.4172   10.3875 C.2     1  UNL1        0.1958
     21 O          62.2143   86.2239    8.9259 O.2     1  UNL1       -0.2893
     22 C          63.1985   83.2744   13.3510 C.ar    1  UNL1        0.1306
     23 C          63.1494   84.7161   13.7620 C.ar    1  UNL1        0.0109
     24 C          62.7291   85.7637   12.7742 C.ar    1  UNL1        0.0016
     25 C          62.3578   85.3696   11.3753 C.ar    1  UNL1        0.0362
     26 C          62.4068   83.9278   10.9643 C.ar    1  UNL1        0.0016
     27 C          62.8272   82.8802   11.9522 C.ar    1  UNL1        0.0109
     28 C          63.5207   85.1102   15.1609 C.3     1  UNL1        0.0218
     29 C          64.8795   85.5283   14.6824 C.3     1  UNL1        0.0045
     30 C          62.1620   84.6922   15.6393 C.3     1  UNL1        0.0045
     31 C          63.8920   85.5044   16.5597 C.3     1  UNL1        0.0045
     32 C          62.8762   81.4385   11.5411 C.3     1  UNL1        0.0218
     33 C          61.8914   81.0974   12.6199 C.3     1  UNL1        0.0045
     34 C          63.8610   81.7796   10.4622 C.3     1  UNL1        0.0045
     35 C          62.9252   79.9967   11.1299 C.3     1  UNL1        0.0045
     36 C          64.8868   81.4557   14.1204 C.3     1  UNL1        0.2524
     37 O          63.6188   82.2267   14.3388 O.3     1  UNL1       -0.4721
@<TRIPOS>BOND
     1    36    37    1
     2    37    22    1
     3    22    23   ar
     4    23    28    1
     5    28    29    1
     6    28    30    1
     7    28    31    1
     8    23    24   ar
     9    24    25   ar
    10    25    20    1
    11    20    21    2
    12    20     1    1
    13     1     2    1
    14     2     3   ar
    15     3    13    1
    16    13    15    1
    17    15    16    1
    18    16    17    1
    19    17    18    1
    20     3     4   ar
    21     4     5   ar
    22     5     6   ar
    23     6     7   ar
    24     7     8    1
    25     7     9   ar
    26     9    10    1
    27     9    11   ar
    28    11    12   ar
    29    25    26   ar
    30    26    27   ar
    31    27    32    1
    32    32    33    1
    33    32    34    1
    34    32    35    1
    35    27    22   ar
    36    12     2   ar
    37    12     5   ar
    38    13    14    1
    39    18    19    1
@<TRIPOS>MOLECULE
*****
 37 39 0 0 0
SMALL
GASTEIGER

@<TRIPOS>ATOM
      1 C          61.9283   89.8770   11.3150 C.3     1  UNL1        0.1777
      2 N          61.6487   88.5405   10.6939 N.ar    1  UNL1       -0.2921
      3 C          60.8433   88.2965    9.4523 C.ar    1  UNL1        0.1982
      4 N          60.8223   86.8186    9.1964 N.ar    1  UNL1       -0.2138
      5 C          61.6147   86.1493   10.2799 C.ar    1  UNL1        0.0996
      6 C          61.9372   84.7083   10.5434 C.ar    1  UNL1        0.0161
      7 C          62.7704   84.3315   11.7323 C.ar    1  UNL1       -0.0242
      8 C          63.0930   82.8904   11.9958 C.3     1  UNL1        0.0307
      9 C          63.2812   85.3957   12.6578 C.ar    1  UNL1       -0.0243
     10 C          64.1145   85.0188   13.8469 C.3     1  UNL1        0.0307
     11 C          62.9588   86.8367   12.3944 C.ar    1  UNL1        0.0142
     12 C          62.1255   87.2135   11.2055 C.ar    1  UNL1        0.0799
     13 N          60.1760   89.3460    8.6137 N.pl3   1  UNL1       -0.3042
     14 H          60.2415   90.2948    8.8684 H       1  UNL1        0.1496
     15 C          59.4088   88.9501    7.3871 C.3     1  UNL1        0.0921
     16 C          59.5612   89.7386    6.1201 C.3     1  UNL1        0.0530
     17 C          58.5027   90.7220    5.7169 C.3     1  UNL1        0.1389
     18 O          58.8852   92.1214    5.3354 O.3     1  UNL1       -0.3819
     19 H          59.2466   92.5803    6.1098 H       1  UNL1        0.2104
     20 C          62.7563   90.8878   10.5786 C.2     1  UNL1        0.1958
     21 O          62.3353   91.3531    9.2161 O.2     1  UNL1       -0.2893
     22 C          66.5039   92.5249   12.4563 C.ar    1  UNL1        0.1306
     23 C          65.4321   91.9274   13.3190 C.ar    1  UNL1        0.0109
     24 C          64.1829   91.3817   12.6931 C.ar    1  UNL1        0.0016
     25 C          64.0055   91.4335   11.2045 C.ar    1  UNL1        0.0362
     26 C          65.0774   92.0310   10.3418 C.ar    1  UNL1        0.0016
     27 C          66.3266   92.5767   10.9677 C.ar    1  UNL1        0.0109
     28 C          65.6095   91.8756   14.8075 C.3     1  UNL1        0.0218
     29 C          65.1911   90.4351   14.8073 C.3     1  UNL1        0.0045
     30 C          66.0279   93.3160   14.8078 C.3     1  UNL1        0.0045
     31 C          65.7869   91.8238   16.2961 C.3     1  UNL1        0.0045
     32 C          67.3983   93.1741   10.1050 C.3     1  UNL1        0.0218
     33 C          68.0206   91.8193    9.9397 C.3     1  UNL1        0.0045
     34 C          66.7761   94.5290   10.2703 C.3     1  UNL1        0.0045
     35 C          68.4701   93.7717    9.2422 C.3     1  UNL1        0.0045
     36 C          68.8683   92.1424   13.4631 C.3     1  UNL1        0.2524
     37 O          67.7532   93.0706   13.0821 O.3     1  UNL1       -0.4721
@<TRIPOS>BOND
     1    36    37    1
     2    37    22    1
     3    22    23   ar
     4    23    28    1
     5    28    29    1
     6    28    30    1
     7    28    31    1
     8    23    24   ar
     9    24    25   ar
    10    25    20    1
    11    20    21    2
    12    20     1    1
    13     1     2    1
    14     2     3   ar
    15     3    13    1
    16    13    15    1
    17    15    16    1
    18    16    17    1
    19    17    18    1
    20     3     4   ar
    21     4     5   ar
    22     5     6   ar
    23     6     7   ar
    24     7     8    1
    25     7     9   ar
    26     9    10    1
    27     9    11   ar
    28    11    12   ar
    29    25    26   ar
    30    26    27   ar
    31    27    32    1
    32    32    33    1
    33    32    34    1
    34    32    35    1
    35    27    22   ar
    36    12     2   ar
    37    12     5   ar
    38    13    14    1
    39    18    19    1
@<TRIPOS>MOLECULE
*****
 37 39 0 0 0
SMALL
GASTEIGER

@<TRIPOS>ATOM
      1 C          61.8843   89.8830   11.3619 C.3     1  UNL1        0.1777
      2 N          61.6041   88.5320   10.7733 N.ar    1  UNL1       -0.2921
      3 C          60.7726   88.2560    9.5557 C.ar    1  UNL1        0.1982
      4 N          60.7609   86.7733    9.3289 N.ar    1  UNL1       -0.2138
      5 C          61.5851   86.1329   10.4063 C.ar    1  UNL1        0.0996
      6 C          61.9284   84.7006   10.6897 C.ar    1  UNL1        0.0161
      7 C          62.7929   84.3552   11.8659 C.ar    1  UNL1       -0.0242
      8 C          63.1363   82.9228   12.1494 C.3     1  UNL1        0.0307
      9 C          63.3141   85.4422   12.7585 C.ar    1  UNL1       -0.0243
     10 C          64.1786   85.0967   13.9347 C.3     1  UNL1        0.0307
     11 C          62.9707   86.8746   12.4751 C.ar    1  UNL1        0.0142
     12 C          62.1063   87.2199   11.2989 C.ar    1  UNL1        0.0799
     13 N          60.0752   89.2824    8.7130 N.pl3   1  UNL1       -0.3042
     14 H          60.0173   90.2155    9.0214 H       1  UNL1        0.1496
     15 C          59.4662   88.8870    7.4005 C.3     1  UNL1        0.0921
     16 C          59.6313   89.7715    6.2003 C.3     1  UNL1        0.0530
     17 C          58.5191   90.6889    5.7861 C.3     1  UNL1        0.1389
     18 O          58.8232   92.1006    5.3803 O.3     1  UNL1       -0.3819
     19 H          59.1619   92.5912    6.1455 H       1  UNL1        0.2104
     20 C          62.7198   90.8722   10.6049 C.2     1  UNL1        0.1958
     21 O          62.3017   91.3133    9.2335 O.2     1  UNL1       -0.2893
     22 C          66.4811   92.5173   12.4479 C.ar    1  UNL1        0.1306
     23 C          66.2933   92.5616   10.9604 C.ar    1  UNL1        0.0109
     24 C          65.0395   92.0132   10.3461 C.ar    1  UNL1        0.0016
     25 C          63.9736   91.4206   11.2193 C.ar    1  UNL1        0.0362
     26 C          64.1614   91.3763   12.7068 C.ar    1  UNL1        0.0016
     27 C          65.4151   91.9247   13.3211 C.ar    1  UNL1        0.0109
     28 C          67.3593   93.1543   10.0872 C.3     1  UNL1        0.0218
     29 C          67.9837   91.7995    9.9300 C.3     1  UNL1        0.0045
     30 C          66.7349   94.5090   10.2445 C.3     1  UNL1        0.0045
     31 C          68.4252   93.7469    9.2140 C.3     1  UNL1        0.0045
     32 C          65.6028   91.8803   14.8086 C.3     1  UNL1        0.0218
     33 C          65.2118   90.4322   14.8149 C.3     1  UNL1        0.0045
     34 C          65.9939   93.3285   14.8025 C.3     1  UNL1        0.0045
     35 C          65.7906   91.8361   16.2963 C.3     1  UNL1        0.0045
     36 C          68.8419   92.1364   13.4635 C.3     1  UNL1        0.2524
     37 O          67.7349   93.0657   13.0624 O.3     1  UNL1       -0.4721
@<TRIPOS>BOND
     1    36    37    1
     2    37    22    1
     3    22    23   ar
     4    23    28    1
     5    28    29    1
     6    28    30    1
     7    28    31    1
     8    23    24   ar
     9    24    25   ar
    10    25    20    1
    11    20    21    2
    12    20     1    1
    13     1     2    1
    14     2     3   ar
    15     3    13    1
    16    13    15    1
    17    15    16    1
    18    16    17    1
    19    17    18    1
    20     3     4   ar
    21     4     5   ar
    22     5     6   ar
    23     6     7   ar
    24     7     8    1
    25     7     9   ar
    26     9    10    1
    27     9    11   ar
    28    11    12   ar
    29    25    26   ar
    30    26    27   ar
    31    27    32    1
    32    32    33    1
    33    32    34    1
    34    32    35    1
    35    27    22   ar
    36    12     2   ar
    37    12     5   ar
    38    13    14    1
    39    18    19    1
@<TRIPOS>MOLECULE
*****
 37 39 0 0 0
SMALL
GASTEIGER

@<TRIPOS>ATOM
      1 C          60.9654   86.4944   10.2176 C.3     1  UNL1        0.1777
      2 N          61.2824   87.9509   10.0501 N.ar    1  UNL1       -0.2921
      3 C          60.7851   88.8406    8.9497 C.ar    1  UNL1        0.1982
      4 N          61.3477   90.2130    9.1732 N.ar    1  UNL1       -0.2138
      5 C          62.1928   90.1714   10.4118 C.ar    1  UNL1        0.0996
      6 C          62.9938   91.2260   11.1162 C.ar    1  UNL1        0.0161
      7 C          63.7544   90.8825   12.3625 C.ar    1  UNL1       -0.0242
      8 C          64.5555   91.9372   13.0669 C.3     1  UNL1        0.0307
      9 C          63.7140   89.4845   12.9045 C.ar    1  UNL1       -0.0243
     10 C          64.4747   89.1410   14.1509 C.3     1  UNL1        0.0307
     11 C          62.9130   88.4299   12.2001 C.ar    1  UNL1        0.0142
     12 C          62.1524   88.7734   10.9538 C.ar    1  UNL1        0.0799
     13 N          59.8834   88.4300    7.8234 N.pl3   1  UNL1       -0.3042
     14 H          59.8730   87.4944    7.5172 H       1  UNL1        0.1496
     15 C          58.9977   89.4450    7.1636 C.3     1  UNL1        0.0921
     16 C          59.4494   90.1320    5.9090 C.3     1  UNL1        0.0530
     17 C          58.5510   91.1246    5.2324 C.3     1  UNL1        0.1389
     18 O          58.9584   92.5654    5.1424 O.3     1  UNL1       -0.3819
     19 H          58.9843   92.9503    6.0325 H       1  UNL1        0.2104
     20 C          62.0702   85.4800   10.2053 C.2     1  UNL1        0.1958
     21 O          62.8676   85.2547    8.9548 O.2     1  UNL1       -0.2893
     22 C          62.9932   83.1127   13.9193 C.ar    1  UNL1        0.1306
     23 C          62.6131   82.4038   12.6532 C.ar    1  UNL1        0.0109
     24 C          62.3055   83.1929   11.4152 C.ar    1  UNL1        0.0016
     25 C          62.3779   84.6909   11.4433 C.ar    1  UNL1        0.0362
     26 C          62.7579   85.3998   12.7094 C.ar    1  UNL1        0.0016
     27 C          63.0656   84.6107   13.9474 C.ar    1  UNL1        0.0109
     28 C          62.5407   80.9059   12.6251 C.3     1  UNL1        0.0218
     29 C          63.5766   80.8761   11.5407 C.3     1  UNL1        0.0045
     30 C          61.5048   80.9356   13.7096 C.3     1  UNL1        0.0045
     31 C          62.4683   79.4079   12.5970 C.3     1  UNL1        0.0045
     32 C          63.4456   85.3197   15.2135 C.3     1  UNL1        0.0218
     33 C          62.0941   85.0163   15.7891 C.3     1  UNL1        0.0045
     34 C          64.7972   85.6230   14.6379 C.3     1  UNL1        0.0045
     35 C          63.8257   86.0287   16.4796 C.3     1  UNL1        0.0045
     36 C          64.7246   82.0186   15.5178 C.3     1  UNL1        0.2524
     37 O          63.3008   82.3237   15.1574 O.3     1  UNL1       -0.4721
@<TRIPOS>BOND
     1    36    37    1
     2    37    22    1
     3    22    23   ar
     4    23    28    1
     5    28    29    1
     6    28    30    1
     7    28    31    1
     8    23    24   ar
     9    24    25   ar
    10    25    20    1
    11    20    21    2
    12    20     1    1
    13     1     2    1
    14     2     3   ar
    15     3    13    1
    16    13    15    1
    17    15    16    1
    18    16    17    1
    19    17    18    1
    20     3     4   ar
    21     4     5   ar
    22     5     6   ar
    23     6     7   ar
    24     7     8    1
    25     7     9   ar
    26     9    10    1
    27     9    11   ar
    28    11    12   ar
    29    25    26   ar
    30    26    27   ar
    31    27    32    1
    32    32    33    1
    33    32    34    1
    34    32    35    1
    35    27    22   ar
    36    12     2   ar
    37    12     5   ar
    38    13    14    1
    39    18    19    1
