@<TRIPOS>MOLECULE
*****
 31 34 0 0 0
SMALL
GASTEIGER

@<TRIPOS>ATOM
      1 C          62.1690   81.8581   12.2577 C.3     1  UNL1        0.0243
      2 C          62.9044   82.6314   13.3119 C.3     1  UNL1        0.1075
      3 C          63.5288   82.0597   14.5502 C.3     1  UNL1        0.1638
      4 O          64.1548   83.1871   15.3165 O.3     1  UNL1       -0.3342
      5 C          63.9174   84.4555   14.5518 C.3     1  UNL1        0.2176
      6 C          64.3050   85.8788   14.8235 C.3     1  UNL1        0.1572
      7 N          63.9199   86.9587   13.8563 N.ar    1  UNL1       -0.3156
      8 C          64.3075   88.3821   14.1281 C.ar    1  UNL1        0.0840
      9 C          63.9224   89.4620   13.1609 C.ar    1  UNL1        0.1125
     10 C          63.1496   89.1186   11.9219 C.ar    1  UNL1        0.2364
     11 O          62.7644   90.1985   10.9547 O.2     1  UNL1       -0.2831
     12 C          62.7620   87.6953   11.6502 C.ar    1  UNL1        0.1936
     13 O          61.9892   87.3518   10.4113 O.3     1  UNL1       -0.5017
     14 C          63.1471   86.6153   12.6175 C.ar    1  UNL1        0.1517
     15 C          62.7595   85.1919   12.3457 C.2     1  UNL1        0.2698
     16 O          61.9867   84.8485   11.1067 O.2     1  UNL1       -0.2681
     17 N          63.1446   84.1120   13.3129 N.am    1  UNL1       -0.2504
     18 H          61.7486   88.0264    9.8071 H       1  UNL1        0.2924
     19 C          64.3100   90.8853   13.4326 C.2     1  UNL1        0.2508
     20 O          63.8119   91.5756   14.6677 O.2     1  UNL1       -0.2700
     21 N          65.1957   91.6184   12.4692 N.am    1  UNL1       -0.2967
     22 H          65.5227   91.1654   11.6586 H       1  UNL1        0.1501
     23 C          65.5833   93.0417   12.7410 C.3     1  UNL1        0.1204
     24 C          66.1771   93.8792   11.6473 C.ar    1  UNL1        0.0436
     25 C          65.7670   95.3139   11.4946 C.ar    1  UNL1        0.0051
     26 C          66.3607   96.1515   10.4011 C.ar    1  UNL1        0.0495
     27 C          67.3647   95.5542    9.4600 C.ar    1  UNL1        0.2242
     28 F          67.9584   96.3917    8.3665 F       1  UNL1       -0.1831
     29 N          67.7748   94.1195    9.6127 N.ar    1  UNL1       -0.1899
     30 C          67.1811   93.2820   10.7064 C.ar    1  UNL1        0.2217
     31 F          67.5912   91.8472   10.8591 F       1  UNL1       -0.1834
@<TRIPOS>BOND
     1     2     1    1
     2     2     3    1
     3     3     4    1
     4     4     5    1
     5     5     6    1
     6     6     7    1
     7     7     8   ar
     8     8     9   ar
     9     9    19    1
    10    19    20    2
    11    19    21   am
    12    21    23    1
    13    23    24    1
    14    24    25   ar
    15    25    26   ar
    16    26    27   ar
    17    27    28    1
    18    27    29   ar
    19    29    30   ar
    20    30    31    1
    21     9    10   ar
    22    10    11    2
    23    10    12   ar
    24    12    13    1
    25    12    14   ar
    26    14    15    1
    27    15    16    2
    28    15    17   am
    29    17     2    1
    30    17     5    1
    31    14     7   ar
    32    30    24   ar
    33    21    22    1
    34    13    18    1
@<TRIPOS>MOLECULE
*****
 31 34 0 0 0
SMALL
GASTEIGER

@<TRIPOS>ATOM
      1 C          62.4320   80.8548   11.5610 C.3     1  UNL1        0.0243
      2 C          63.0548   81.5430   12.7394 C.3     1  UNL1        0.1075
      3 C          63.6229   80.8709   13.9541 C.3     1  UNL1        0.1638
      4 O          64.1380   81.9367   14.8754 O.3     1  UNL1       -0.3342
      5 C          63.8881   83.2676   14.2301 C.3     1  UNL1        0.2176
      6 C          64.1837   84.6695   14.6741 C.3     1  UNL1        0.1572
      7 N          63.8098   85.8282   13.7979 N.ar    1  UNL1       -0.3156
      8 C          64.1054   87.2302   14.2419 C.ar    1  UNL1        0.0840
      9 C          63.7315   88.3889   13.3657 C.ar    1  UNL1        0.1125
     10 C          63.0620   88.1457   12.0456 C.ar    1  UNL1        0.2364
     11 O          62.6881   89.3043   11.1694 O.2     1  UNL1       -0.2831
     12 C          62.7665   86.7437   11.6017 C.ar    1  UNL1        0.1936
     13 O          62.0970   86.5004   10.2816 O.3     1  UNL1       -0.5017
     14 C          63.1404   85.5849   12.4779 C.ar    1  UNL1        0.1517
     15 C          62.8448   84.1829   12.0339 C.2     1  UNL1        0.2698
     16 O          62.1753   83.9397   10.7137 O.2     1  UNL1       -0.2681
     17 N          63.2186   83.0243   12.9100 N.am    1  UNL1       -0.2504
     18 H          61.8635   87.2242    9.7342 H       1  UNL1        0.2924
     19 C          64.0271   89.7909   13.8096 C.2     1  UNL1        0.2508
     20 O          63.6675   90.2294   15.1984 O.2     1  UNL1       -0.2700
     21 N          64.6822   90.7543   12.8649 N.am    1  UNL1       -0.2967
     22 H          64.9182   90.4665   11.9535 H       1  UNL1        0.1501
     23 C          64.9778   92.1563   13.3088 C.3     1  UNL1        0.1204
     24 C          66.2143   92.4453   14.1073 C.ar    1  UNL1        0.0436
     25 C          66.1056   92.7657   15.5686 C.ar    1  UNL1        0.0051
     26 C          67.3420   93.0547   16.3672 C.ar    1  UNL1        0.0495
     27 C          68.6873   93.0231   15.7043 C.ar    1  UNL1        0.2242
     28 F          69.9237   93.3121   16.5028 F       1  UNL1       -0.1831
     29 N          68.7960   92.7026   14.2430 N.ar    1  UNL1       -0.1899
     30 C          67.5595   92.4137   13.4445 C.ar    1  UNL1        0.2217
     31 F          67.6682   92.0932   11.9832 F       1  UNL1       -0.1834
@<TRIPOS>BOND
     1     2     1    1
     2     2     3    1
     3     3     4    1
     4     4     5    1
     5     5     6    1
     6     6     7    1
     7     7     8   ar
     8     8     9   ar
     9     9    19    1
    10    19    20    2
    11    19    21   am
    12    21    23    1
    13    23    24    1
    14    24    25   ar
    15    25    26   ar
    16    26    27   ar
    17    27    28    1
    18    27    29   ar
    19    29    30   ar
    20    30    31    1
    21     9    10   ar
    22    10    11    2
    23    10    12   ar
    24    12    13    1
    25    12    14   ar
    26    14    15    1
    27    15    16    2
    28    15    17   am
    29    17     2    1
    30    17     5    1
    31    14     7   ar
    32    30    24   ar
    33    21    22    1
    34    13    18    1
@<TRIPOS>MOLECULE
*****
 31 34 0 0 0
SMALL
GASTEIGER

@<TRIPOS>ATOM
      1 C          62.3934   80.2981   13.5650 C.3     1  UNL1        0.0243
      2 C          62.8108   81.4500   12.6996 C.3     1  UNL1        0.1075
      3 C          63.0964   81.3893   11.2283 C.3     1  UNL1        0.1638
      4 O          63.4780   82.7666   10.7729 O.3     1  UNL1       -0.3342
      5 C          63.4284   83.6786   11.9628 C.3     1  UNL1        0.2176
      6 C          63.7053   85.1448   12.1159 C.3     1  UNL1        0.1572
      7 N          63.5700   85.7973   13.4597 N.ar    1  UNL1       -0.3156
      8 C          63.8470   87.2636   13.6127 C.ar    1  UNL1        0.0840
      9 C          63.7116   87.9161   14.9565 C.ar    1  UNL1        0.1125
     10 C          63.2992   87.1025   16.1474 C.ar    1  UNL1        0.2364
     11 O          63.1639   87.7550   17.4912 O.2     1  UNL1       -0.2831
     12 C          63.0223   85.6362   15.9943 C.ar    1  UNL1        0.1936
     13 O          62.6099   84.8225   17.1850 O.3     1  UNL1       -0.5017
     14 C          63.1576   84.9837   14.6504 C.ar    1  UNL1        0.1517
     15 C          62.8806   83.5174   14.4973 C.2     1  UNL1        0.2698
     16 O          62.4683   82.7037   15.6881 O.2     1  UNL1       -0.2681
     17 N          63.0160   82.8648   13.1535 N.am    1  UNL1       -0.2504
     18 H          62.5254   85.2301   18.0245 H       1  UNL1        0.2924
     19 C          63.9886   89.3823   15.1096 C.2     1  UNL1        0.2508
     20 O          63.1415   90.2139   16.0268 O.2     1  UNL1       -0.2700
     21 N          65.1125   90.0171   14.3456 N.am    1  UNL1       -0.2967
     22 H          65.6684   89.4713   13.7436 H       1  UNL1        0.1501
     23 C          65.3895   91.4833   14.4986 C.3     1  UNL1        0.1204
     24 C          65.5830   92.3409   13.2833 C.ar    1  UNL1        0.0436
     25 C          64.9098   91.9766   11.9933 C.ar    1  UNL1        0.0051
     26 C          65.1032   92.8341   10.7780 C.ar    1  UNL1        0.0495
     27 C          65.9699   94.0562   10.8525 C.ar    1  UNL1        0.2242
     28 F          66.1633   94.9137    9.6373 F       1  UNL1       -0.1831
     29 N          66.6431   94.4205   12.1425 N.ar    1  UNL1       -0.1899
     30 C          66.4497   93.5629   13.3579 C.ar    1  UNL1        0.2217
     31 F          67.1229   93.9273   14.6479 F       1  UNL1       -0.1834
@<TRIPOS>BOND
     1     2     1    1
     2     2     3    1
     3     3     4    1
     4     4     5    1
     5     5     6    1
     6     6     7    1
     7     7     8   ar
     8     8     9   ar
     9     9    19    1
    10    19    20    2
    11    19    21   am
    12    21    23    1
    13    23    24    1
    14    24    25   ar
    15    25    26   ar
    16    26    27   ar
    17    27    28    1
    18    27    29   ar
    19    29    30   ar
    20    30    31    1
    21     9    10   ar
    22    10    11    2
    23    10    12   ar
    24    12    13    1
    25    12    14   ar
    26    14    15    1
    27    15    16    2
    28    15    17   am
    29    17     2    1
    30    17     5    1
    31    14     7   ar
    32    30    24   ar
    33    21    22    1
    34    13    18    1
@<TRIPOS>MOLECULE
*****
 31 34 0 0 0
SMALL
GASTEIGER

@<TRIPOS>ATOM
      1 C          62.6595   79.6543   13.8315 C.3     1  UNL1        0.0243
      2 C          62.7788   80.6297   12.6982 C.3     1  UNL1        0.1075
      3 C          62.7428   80.2923   11.2371 C.3     1  UNL1        0.1638
      4 O          62.8968   81.5677   10.4628 O.3     1  UNL1       -0.3342
      5 C          63.0281   82.6935   11.4455 C.3     1  UNL1        0.2176
      6 C          63.2045   84.1715   11.2607 C.3     1  UNL1        0.1572
      7 N          63.3081   85.0698   12.4575 N.ar    1  UNL1       -0.3156
      8 C          63.4846   86.5480   12.2727 C.ar    1  UNL1        0.0840
      9 C          63.5881   87.4463   13.4695 C.ar    1  UNL1        0.1125
     10 C          63.5152   86.8666   14.8511 C.ar    1  UNL1        0.2364
     11 O          63.6188   87.7649   16.0479 O.2     1  UNL1       -0.2831
     12 C          63.3387   85.3885   15.0358 C.ar    1  UNL1        0.1936
     13 O          63.2658   84.8087   16.4173 O.3     1  UNL1       -0.5017
     14 C          63.2352   84.4901   13.8389 C.ar    1  UNL1        0.1517
     15 C          63.0587   83.0120   14.0237 C.2     1  UNL1        0.2698
     16 O          62.9858   82.4323   15.4053 O.2     1  UNL1       -0.2681
     17 N          62.9551   82.1137   12.8270 N.am    1  UNL1       -0.2504
     18 H          63.3305   85.3699   17.1649 H       1  UNL1        0.2924
     19 C          63.7646   88.9243   13.2848 C.2     1  UNL1        0.2508
     20 O          63.0285   89.6364   12.1887 O.2     1  UNL1       -0.2700
     21 N          64.6771   89.6904   14.1961 N.am    1  UNL1       -0.2967
     22 H          65.1602   89.2231   14.9155 H       1  UNL1        0.1501
     23 C          64.8535   91.1685   14.0114 C.3     1  UNL1        0.1204
     24 C          66.0518   91.8591   14.5920 C.ar    1  UNL1        0.0436
     25 C          67.3384   91.9030   13.8221 C.ar    1  UNL1        0.0051
     26 C          68.5367   92.5936   14.4026 C.ar    1  UNL1        0.0495
     27 C          68.4485   93.2404   15.7532 C.ar    1  UNL1        0.2242
     28 F          69.6467   93.9310   16.3338 F       1  UNL1       -0.1831
     29 N          67.1619   93.1965   16.5231 N.ar    1  UNL1       -0.1899
     30 C          65.9635   92.5059   15.9425 C.ar    1  UNL1        0.2217
     31 F          64.6770   92.4620   16.7124 F       1  UNL1       -0.1834
@<TRIPOS>BOND
     1     2     1    1
     2     2     3    1
     3     3     4    1
     4     4     5    1
     5     5     6    1
     6     6     7    1
     7     7     8   ar
     8     8     9   ar
     9     9    19    1
    10    19    20    2
    11    19    21   am
    12    21    23    1
    13    23    24    1
    14    24    25   ar
    15    25    26   ar
    16    26    27   ar
    17    27    28    1
    18    27    29   ar
    19    29    30   ar
    20    30    31    1
    21     9    10   ar
    22    10    11    2
    23    10    12   ar
    24    12    13    1
    25    12    14   ar
    26    14    15    1
    27    15    16    2
    28    15    17   am
    29    17     2    1
    30    17     5    1
    31    14     7   ar
    32    30    24   ar
    33    21    22    1
    34    13    18    1
@<TRIPOS>MOLECULE
*****
 31 34 0 0 0
SMALL
GASTEIGER

@<TRIPOS>ATOM
      1 C          62.7863   80.2958   11.4262 C.3     1  UNL1        0.0243
      2 C          63.2756   81.1007   12.5935 C.3     1  UNL1        0.1075
      3 C          63.8375   80.5500   13.8707 C.3     1  UNL1        0.1638
      4 O          64.1981   81.7065   14.7552 O.3     1  UNL1       -0.3342
      5 C          63.8591   82.9720   14.0247 C.3     1  UNL1        0.2176
      6 C          63.9959   84.4170   14.4035 C.3     1  UNL1        0.1572
      7 N          63.5626   85.4874   13.4462 N.ar    1  UNL1       -0.3156
      8 C          63.6994   86.9324   13.8251 C.ar    1  UNL1        0.0840
      9 C          63.2661   88.0029   12.8678 C.ar    1  UNL1        0.1125
     10 C          62.6960   87.6285   11.5318 C.ar    1  UNL1        0.2364
     11 O          62.2627   88.6990   10.5746 O.2     1  UNL1       -0.2831
     12 C          62.5592   86.1836   11.1531 C.ar    1  UNL1        0.1936
     13 O          61.9891   85.8092    9.8171 O.3     1  UNL1       -0.5017
     14 C          62.9925   85.1130   12.1104 C.ar    1  UNL1        0.1517
     15 C          62.8557   83.6681   11.7315 C.2     1  UNL1        0.2698
     16 O          62.2856   83.2937   10.3955 O.2     1  UNL1       -0.2681
     17 N          63.2890   82.5976   12.6888 N.am    1  UNL1       -0.2504
     18 H          61.7184   86.4779    9.2192 H       1  UNL1        0.2924
     19 C          63.4028   89.4478   13.2466 C.2     1  UNL1        0.2508
     20 O          62.1801   90.2641   13.5445 O.2     1  UNL1       -0.2700
     21 N          64.7623   90.0766   13.3274 N.am    1  UNL1       -0.2967
     22 H          65.5648   89.5408   13.1318 H       1  UNL1        0.1501
     23 C          64.8991   91.5215   13.7061 C.3     1  UNL1        0.1204
     24 C          65.4349   92.5097   12.7129 C.ar    1  UNL1        0.0436
     25 C          65.1326   92.3447   11.2530 C.ar    1  UNL1        0.0051
     26 C          65.6683   93.3328   10.2598 C.ar    1  UNL1        0.0495
     27 C          66.5064   94.4861   10.7265 C.ar    1  UNL1        0.2242
     28 F          67.0421   95.4742    9.7333 F       1  UNL1       -0.1831
     29 N          66.8087   94.6510   12.1864 N.ar    1  UNL1       -0.1899
     30 C          66.2730   93.6628   13.1797 C.ar    1  UNL1        0.2217
     31 F          66.5752   93.8278   14.6396 F       1  UNL1       -0.1834
@<TRIPOS>BOND
     1     2     1    1
     2     2     3    1
     3     3     4    1
     4     4     5    1
     5     5     6    1
     6     6     7    1
     7     7     8   ar
     8     8     9   ar
     9     9    19    1
    10    19    20    2
    11    19    21   am
    12    21    23    1
    13    23    24    1
    14    24    25   ar
    15    25    26   ar
    16    26    27   ar
    17    27    28    1
    18    27    29   ar
    19    29    30   ar
    20    30    31    1
    21     9    10   ar
    22    10    11    2
    23    10    12   ar
    24    12    13    1
    25    12    14   ar
    26    14    15    1
    27    15    16    2
    28    15    17   am
    29    17     2    1
    30    17     5    1
    31    14     7   ar
    32    30    24   ar
    33    21    22    1
    34    13    18    1
@<TRIPOS>MOLECULE
*****
 31 34 0 0 0
SMALL
GASTEIGER

@<TRIPOS>ATOM
      1 C          59.2989   85.9654    7.4371 C.3     1  UNL1        0.0243
      2 C          59.6063   87.3913    7.7872 C.3     1  UNL1        0.1075
      3 C          59.1228   88.6043    7.0490 C.3     1  UNL1        0.1638
      4 O          59.6688   89.8171    7.7425 O.3     1  UNL1       -0.3342
      5 C          60.4897   89.3537    8.9093 C.3     1  UNL1        0.2176
      6 C          61.2674   90.1032    9.9501 C.3     1  UNL1        0.1572
      7 N          62.0065   89.3534   11.0186 N.ar    1  UNL1       -0.3156
      8 C          62.7842   90.1030   12.0595 C.ar    1  UNL1        0.0840
      9 C          63.5233   89.3533   13.1279 C.ar    1  UNL1        0.1125
     10 C          63.4847   87.8540   13.1556 C.ar    1  UNL1        0.2364
     11 O          64.2238   87.1042   14.2241 O.2     1  UNL1       -0.2831
     12 C          62.7070   87.1045   12.1147 C.ar    1  UNL1        0.1936
     13 O          62.6683   85.6052   12.1423 O.3     1  UNL1       -0.5017
     14 C          61.9679   87.8543   11.0462 C.ar    1  UNL1        0.1517
     15 C          61.1901   87.1047   10.0053 C.2     1  UNL1        0.2698
     16 O          61.1515   85.6054   10.0330 O.2     1  UNL1       -0.2681
     17 N          60.4511   87.8545    8.9369 N.am    1  UNL1       -0.2504
     18 H          63.1300   85.1369   12.8098 H       1  UNL1        0.2924
     19 C          64.3010   90.1028   14.1688 C.2     1  UNL1        0.2508
     20 O          65.6596   89.6197   14.5824 O.2     1  UNL1       -0.2700
     21 N          63.7202   91.3354   14.7960 N.am    1  UNL1       -0.2967
     22 H          62.8286   91.6524   14.5246 H       1  UNL1        0.1501
     23 C          64.4980   92.0849   15.8369 C.3     1  UNL1        0.1204
     24 C          65.9374   92.4299   15.5938 C.ar    1  UNL1        0.0436
     25 C          66.9422   92.2758   16.6967 C.ar    1  UNL1        0.0051
     26 C          68.3815   92.6208   16.4538 C.ar    1  UNL1        0.0495
     27 C          68.8162   93.1200   15.1076 C.ar    1  UNL1        0.2242
     28 F          70.2555   93.4650   14.8646 F       1  UNL1       -0.1831
     29 N          67.8114   93.2741   14.0047 N.ar    1  UNL1       -0.1899
     30 C          66.3719   92.9291   14.2477 C.ar    1  UNL1        0.2217
     31 F          65.3671   93.0832   13.1447 F       1  UNL1       -0.1834
@<TRIPOS>BOND
     1     2     1    1
     2     2     3    1
     3     3     4    1
     4     4     5    1
     5     5     6    1
     6     6     7    1
     7     7     8   ar
     8     8     9   ar
     9     9    19    1
    10    19    20    2
    11    19    21   am
    12    21    23    1
    13    23    24    1
    14    24    25   ar
    15    25    26   ar
    16    26    27   ar
    17    27    28    1
    18    27    29   ar
    19    29    30   ar
    20    30    31    1
    21     9    10   ar
    22    10    11    2
    23    10    12   ar
    24    12    13    1
    25    12    14   ar
    26    14    15    1
    27    15    16    2
    28    15    17   am
    29    17     2    1
    30    17     5    1
    31    14     7   ar
    32    30    24   ar
    33    21    22    1
    34    13    18    1
