@<TRIPOS>MOLECULE
*****
 32 36 0 0 0
SMALL
GASTEIGER

@<TRIPOS>ATOM
      1 C          63.0508   86.4003   12.5850 C.2     1  UNL1        0.2506
      2 O          63.6858   87.2834   13.6180 O.2     1  UNL1       -0.2699
      3 N          62.1793   86.9982   11.5206 N.am    1  UNL1       -0.2723
      4 C          61.5442   86.1152   10.4876 C.3     1  UNL1        0.1257
      5 C          60.6727   86.7132    9.4232 C.3     1  UNL1        0.1637
      6 O          60.4362   88.1940    9.3918 O.3     1  UNL1       -0.3502
      7 C          61.0712   89.0770   10.4248 C.3     1  UNL1        0.1622
      8 C          61.9427   88.4792   11.4892 C.3     1  UNL1        0.1096
      9 C          64.0177   81.9439   10.0940 C.3     1  UNL1        0.0310
     10 C          63.7708   82.6912   11.3709 C.ar    1  UNL1       -0.0216
     11 C          63.7604   81.9577   12.6792 C.ar    1  UNL1       -0.0026
     12 C          63.5135   82.7050   13.9561 C.ar    1  UNL1        0.0207
     13 C          63.2769   84.1858   13.9247 C.ar    1  UNL1        0.1072
     14 C          63.2873   84.9194   12.6164 C.ar    1  UNL1        0.0726
     15 C          63.5343   84.1721   11.3395 C.ar    1  UNL1        0.0018
     16 N          63.0300   84.9332   15.2017 N.ar    1  UNL1       -0.1477
     17 N          64.0679   85.6309   16.0298 N.ar    1  UNL1       -0.1447
     18 C          63.3812   86.2429   17.2146 C.ar    1  UNL1        0.1446
     19 C          61.9187   85.9234   17.1188 C.ar    1  UNL1        0.1446
     20 N          61.7017   85.1140   15.8747 N.ar    1  UNL1       -0.1447
     21 C          62.5777   89.3622   12.5221 C.3     1  UNL1        0.0488
     22 C          63.5238   90.4476   12.1018 C.ar    1  UNL1       -0.0189
     23 C          63.3759   91.0913   10.7551 C.ar    1  UNL1       -0.0041
     24 C          64.3220   92.1769   10.3347 C.ar    1  UNL1        0.0012
     25 C          65.4159   92.6186   11.2610 C.ar    1  UNL1        0.0192
     26 C          65.5638   91.9748   12.6078 C.ar    1  UNL1        0.0842
     27 C          64.6177   90.8893   13.0282 C.ar    1  UNL1        0.0150
     28 N          66.6577   92.4165   13.5342 N.ar    1  UNL1       -0.2089
     29 C          66.4862   93.2618   14.7614 C.ar    1  UNL1        0.1245
     30 C          67.8377   93.4583   15.3817 C.ar    1  UNL1        0.1445
     31 N          68.8446   92.7343   14.5378 N.ar    1  UNL1       -0.1268
     32 N          68.1154   92.0904   13.3960 N.ar    1  UNL1       -0.0595
@<TRIPOS>BOND
     1     9    10    1
     2    10    11   ar
     3    11    12   ar
     4    12    13   ar
     5    13    16    1
     6    16    17   ar
     7    17    18   ar
     8    18    19   ar
     9    19    20   ar
    10    13    14   ar
    11    14     1    1
    12     1     2    2
    13     1     3   am
    14     3     4    1
    15     4     5    1
    16     5     6    1
    17     6     7    1
    18     7     8    1
    19     8    21    1
    20    21    22    1
    21    22    23   ar
    22    23    24   ar
    23    24    25   ar
    24    25    26   ar
    25    26    28    1
    26    28    29   ar
    27    29    30   ar
    28    30    31   ar
    29    31    32   ar
    30    26    27   ar
    31    14    15   ar
    32    15    10   ar
    33    20    16   ar
    34     8     3    1
    35    27    22   ar
    36    32    28   ar
@<TRIPOS>MOLECULE
*****
 32 36 0 0 0
SMALL
GASTEIGER

@<TRIPOS>ATOM
      1 C          62.6653   88.5209   11.5418 C.2     1  UNL1        0.2506
      2 O          62.6612   90.0203   11.5010 O.2     1  UNL1       -0.2699
      3 N          63.3084   87.8037   12.6915 N.am    1  UNL1       -0.2723
      4 C          63.3125   86.3042   12.7323 C.3     1  UNL1        0.1257
      5 C          63.9557   85.5870   13.8822 C.3     1  UNL1        0.1637
      6 O          64.5947   86.3692   14.9911 O.3     1  UNL1       -0.3502
      7 C          64.5906   87.8686   14.9503 C.3     1  UNL1        0.1622
      8 C          63.9475   88.5859   13.8005 C.3     1  UNL1        0.1096
      9 C          63.0040   84.9654    7.7677 C.3     1  UNL1        0.0310
     10 C          62.1957   85.9610    8.5457 C.ar    1  UNL1       -0.0216
     11 C          60.7483   86.1743    8.2149 C.ar    1  UNL1       -0.0026
     12 C          59.9399   87.1699    8.9929 C.ar    1  UNL1        0.0207
     13 C          60.5789   87.9520   10.1019 C.ar    1  UNL1        0.1072
     14 C          62.0262   87.7387   10.4328 C.ar    1  UNL1        0.0726
     15 C          62.8346   86.7432    9.6547 C.ar    1  UNL1        0.0018
     16 N          59.7705   88.9476   10.8800 N.ar    1  UNL1       -0.1477
     17 N          59.0344   88.6787   12.1590 N.ar    1  UNL1       -0.1447
     18 C          58.3652   89.9517   12.5852 C.ar    1  UNL1        0.1446
     19 C          58.6877   91.0074   11.5695 C.ar    1  UNL1        0.1446
     20 N          59.5562   90.3868   10.5157 N.ar    1  UNL1       -0.1447
     21 C          63.9434   90.0853   13.7597 C.3     1  UNL1        0.0488
     22 C          65.2393   90.8372   13.6884 C.ar    1  UNL1       -0.0189
     23 C          66.1579   90.8625   14.8740 C.ar    1  UNL1       -0.0041
     24 C          67.4539   91.6144   14.8027 C.ar    1  UNL1        0.0012
     25 C          67.8313   92.3410   13.5459 C.ar    1  UNL1        0.0192
     26 C          66.9126   92.3157   12.3603 C.ar    1  UNL1        0.0842
     27 C          65.6167   91.5638   12.4316 C.ar    1  UNL1        0.0150
     28 N          67.2900   93.0423   11.1034 N.ar    1  UNL1       -0.2089
     29 C          67.9047   92.4282    9.8807 C.ar    1  UNL1        0.1245
     30 C          68.1135   93.5169    8.8702 C.ar    1  UNL1        0.1445
     31 N          67.6279   94.8039    9.4685 N.ar    1  UNL1       -0.1268
     32 N          67.1190   94.5106   10.8487 N.ar    1  UNL1       -0.0595
@<TRIPOS>BOND
     1     9    10    1
     2    10    11   ar
     3    11    12   ar
     4    12    13   ar
     5    13    16    1
     6    16    17   ar
     7    17    18   ar
     8    18    19   ar
     9    19    20   ar
    10    13    14   ar
    11    14     1    1
    12     1     2    2
    13     1     3   am
    14     3     4    1
    15     4     5    1
    16     5     6    1
    17     6     7    1
    18     7     8    1
    19     8    21    1
    20    21    22    1
    21    22    23   ar
    22    23    24   ar
    23    24    25   ar
    24    25    26   ar
    25    26    28    1
    26    28    29   ar
    27    29    30   ar
    28    30    31   ar
    29    31    32   ar
    30    26    27   ar
    31    14    15   ar
    32    15    10   ar
    33    20    16   ar
    34     8     3    1
    35    27    22   ar
    36    32    28   ar
@<TRIPOS>MOLECULE
*****
 32 36 0 0 0
SMALL
GASTEIGER

@<TRIPOS>ATOM
      1 C          62.7377   87.3301   11.7854 C.2     1  UNL1        0.2506
      2 O          63.4066   87.4979   13.1174 O.2     1  UNL1       -0.2699
      3 N          61.9041   88.4412   11.2194 N.am    1  UNL1       -0.2723
      4 C          61.2352   88.2733    9.8873 C.3     1  UNL1        0.1257
      5 C          60.4015   89.3846    9.3214 C.3     1  UNL1        0.1637
      6 O          60.2368   90.6636   10.0874 O.3     1  UNL1       -0.3502
      7 C          60.9057   90.8315   11.4195 C.3     1  UNL1        0.1622
      8 C          61.7394   89.7203   11.9855 C.3     1  UNL1        0.1096
      9 C          62.8552   84.7778    7.2607 C.3     1  UNL1        0.0310
     10 C          62.9612   84.7749    8.7570 C.ar    1  UNL1       -0.0216
     11 C          63.2319   83.4929    9.4871 C.ar    1  UNL1       -0.0026
     12 C          63.3379   83.4900   10.9834 C.ar    1  UNL1        0.0207
     13 C          63.1732   84.7690   11.7494 C.ar    1  UNL1        0.1072
     14 C          62.9025   86.0509   11.0193 C.ar    1  UNL1        0.0726
     15 C          62.7965   86.0539    9.5230 C.ar    1  UNL1        0.0018
     16 N          63.2792   84.7660   13.2457 N.ar    1  UNL1       -0.1477
     17 N          62.1323   84.7093   14.2108 N.ar    1  UNL1       -0.1447
     18 C          62.6950   84.7275   15.6011 C.ar    1  UNL1        0.1446
     19 C          64.1897   84.7954   15.4953 C.ar    1  UNL1        0.1446
     20 N          64.5508   84.8192   14.0396 N.ar    1  UNL1       -0.1447
     21 C          62.4083   89.8882   13.3175 C.3     1  UNL1        0.0488
     22 C          63.7372   90.5778   13.4078 C.ar    1  UNL1       -0.0189
     23 C          64.5764   90.4302   14.6423 C.ar    1  UNL1       -0.0041
     24 C          65.9055   91.1199   14.7326 C.ar    1  UNL1        0.0012
     25 C          66.3952   91.9572   13.5884 C.ar    1  UNL1        0.0192
     26 C          65.5560   92.1047   12.3539 C.ar    1  UNL1        0.0842
     27 C          64.2270   91.4151   12.2636 C.ar    1  UNL1        0.0150
     28 N          66.0457   92.9420   11.2098 N.ar    1  UNL1       -0.2089
     29 C          67.1930   92.6102   10.3022 C.ar    1  UNL1        0.1245
     30 C          67.3305   93.7212    9.3038 C.ar    1  UNL1        0.1445
     31 N          66.2683   94.7397    9.5943 N.ar    1  UNL1       -0.1268
     32 N          65.4742   94.2581   10.7723 N.ar    1  UNL1       -0.0595
@<TRIPOS>BOND
     1     9    10    1
     2    10    11   ar
     3    11    12   ar
     4    12    13   ar
     5    13    16    1
     6    16    17   ar
     7    17    18   ar
     8    18    19   ar
     9    19    20   ar
    10    13    14   ar
    11    14     1    1
    12     1     2    2
    13     1     3   am
    14     3     4    1
    15     4     5    1
    16     5     6    1
    17     6     7    1
    18     7     8    1
    19     8    21    1
    20    21    22    1
    21    22    23   ar
    22    23    24   ar
    23    24    25   ar
    24    25    26   ar
    25    26    28    1
    26    28    29   ar
    27    29    30   ar
    28    30    31   ar
    29    31    32   ar
    30    26    27   ar
    31    14    15   ar
    32    15    10   ar
    33    20    16   ar
    34     8     3    1
    35    27    22   ar
    36    32    28   ar
@<TRIPOS>MOLECULE
*****
 32 36 0 0 0
SMALL
GASTEIGER

@<TRIPOS>ATOM
      1 C          63.3417   86.9946   13.1020 C.2     1  UNL1        0.2506
      2 O          63.8204   87.6439   14.3667 O.2     1  UNL1       -0.2699
      3 N          62.8068   87.8372   11.9823 N.am    1  UNL1       -0.2723
      4 C          62.3282   87.1880   10.7177 C.3     1  UNL1        0.1257
      5 C          61.7933   88.0307    9.5979 C.3     1  UNL1        0.1637
      6 O          61.7370   89.5225    9.7428 O.3     1  UNL1       -0.3502
      7 C          62.2157   90.1718   11.0074 C.3     1  UNL1        0.1622
      8 C          62.7506   89.3292   12.1272 C.3     1  UNL1        0.1096
      9 C          63.9594   82.7830   10.1220 C.3     1  UNL1        0.0310
     10 C          63.7068   83.3969   11.4672 C.ar    1  UNL1       -0.0216
     11 C          63.5105   82.5189   12.6674 C.ar    1  UNL1       -0.0026
     12 C          63.2579   83.1328   14.0125 C.ar    1  UNL1        0.0207
     13 C          63.2017   84.6247   14.1574 C.ar    1  UNL1        0.1072
     14 C          63.3980   85.5026   12.9572 C.ar    1  UNL1        0.0726
     15 C          63.6506   84.8887   11.6121 C.ar    1  UNL1        0.0018
     16 N          62.9491   85.2386   15.5025 N.ar    1  UNL1       -0.1477
     17 N          63.9945   85.7523   16.4476 N.ar    1  UNL1       -0.1447
     18 C          63.2983   86.2778   17.6679 C.ar    1  UNL1        0.1446
     19 C          61.8225   86.0888   17.4770 C.ar    1  UNL1        0.1446
     20 N          61.6067   85.4465   16.1388 N.ar    1  UNL1       -0.1447
     21 C          63.2292   89.9785   13.3918 C.3     1  UNL1        0.0488
     22 C          64.5135   90.7535   13.3974 C.ar    1  UNL1       -0.0189
     23 C          65.4592   90.6294   14.5550 C.ar    1  UNL1       -0.0041
     24 C          66.7435   91.4045   14.5607 C.ar    1  UNL1        0.0012
     25 C          67.0820   92.3036   13.4087 C.ar    1  UNL1        0.0192
     26 C          66.1361   92.4277   12.2511 C.ar    1  UNL1        0.0842
     27 C          64.8519   91.6527   12.2455 C.ar    1  UNL1        0.0150
     28 N          66.4745   93.3268   11.0991 N.ar    1  UNL1       -0.2089
     29 C          65.7565   94.5898   10.7259 C.ar    1  UNL1        0.1245
     30 C          66.4286   95.1644    9.5142 C.ar    1  UNL1        0.1445
     31 N          67.5620   94.2565    9.1385 N.ar    1  UNL1       -0.1268
     32 N          67.5905   93.1208   10.1180 N.ar    1  UNL1       -0.0595
@<TRIPOS>BOND
     1     9    10    1
     2    10    11   ar
     3    11    12   ar
     4    12    13   ar
     5    13    16    1
     6    16    17   ar
     7    17    18   ar
     8    18    19   ar
     9    19    20   ar
    10    13    14   ar
    11    14     1    1
    12     1     2    2
    13     1     3   am
    14     3     4    1
    15     4     5    1
    16     5     6    1
    17     6     7    1
    18     7     8    1
    19     8    21    1
    20    21    22    1
    21    22    23   ar
    22    23    24   ar
    23    24    25   ar
    24    25    26   ar
    25    26    28    1
    26    28    29   ar
    27    29    30   ar
    28    30    31   ar
    29    31    32   ar
    30    26    27   ar
    31    14    15   ar
    32    15    10   ar
    33    20    16   ar
    34     8     3    1
    35    27    22   ar
    36    32    28   ar
@<TRIPOS>MOLECULE
*****
 32 36 0 0 0
SMALL
GASTEIGER

@<TRIPOS>ATOM
      1 C          62.6330   88.1384   10.9308 C.2     1  UNL1        0.2506
      2 O          63.0356   89.5703   10.7371 O.2     1  UNL1       -0.2699
      3 N          63.0520   87.4023   12.1688 N.am    1  UNL1       -0.2723
      4 C          62.6494   85.9704   12.3625 C.3     1  UNL1        0.1257
      5 C          63.0685   85.2344   13.6005 C.3     1  UNL1        0.1637
      6 O          63.8902   85.9302   14.6448 O.3     1  UNL1       -0.3502
      7 C          64.2929   87.3622   14.4511 C.3     1  UNL1        0.1622
      8 C          63.8738   88.0982   13.2131 C.3     1  UNL1        0.1096
      9 C          62.2741   84.7517    7.0063 C.3     1  UNL1        0.0310
     10 C          61.6318   85.7492    7.9242 C.ar    1  UNL1       -0.0216
     11 C          60.1679   86.0507    7.7978 C.ar    1  UNL1       -0.0026
     12 C          59.5257   87.0482    8.7158 C.ar    1  UNL1        0.0207
     13 C          60.3474   87.7441    9.7601 C.ar    1  UNL1        0.1072
     14 C          61.8112   87.4425    9.8865 C.ar    1  UNL1        0.0726
     15 C          62.4535   86.4450    8.9685 C.ar    1  UNL1        0.0018
     16 N          59.7051   88.7415   10.6780 N.ar    1  UNL1       -0.1477
     17 N          59.5980   90.2185   10.4390 N.ar    1  UNL1       -0.1447
     18 C          58.8839   90.8269   11.6094 C.ar    1  UNL1        0.1446
     19 C          58.5497   89.7260   12.5718 C.ar    1  UNL1        0.1446
     20 N          59.0572   88.4372   11.9962 N.ar    1  UNL1       -0.1447
     21 C          64.2764   89.5301   13.0194 C.3     1  UNL1        0.0488
     22 C          64.5756   90.3926   14.2096 C.ar    1  UNL1       -0.0189
     23 C          63.5647   90.5301   15.3092 C.ar    1  UNL1       -0.0041
     24 C          63.8639   91.3927   16.4994 C.ar    1  UNL1        0.0012
     25 C          65.1739   92.1178   16.5899 C.ar    1  UNL1        0.0192
     26 C          66.1847   91.9802   15.4902 C.ar    1  UNL1        0.0842
     27 C          65.8856   91.1177   14.3001 C.ar    1  UNL1        0.0150
     28 N          67.4947   92.7053   15.5807 N.ar    1  UNL1       -0.2089
     29 C          68.7668   92.3176   14.8869 C.ar    1  UNL1        0.1245
     30 C          69.8210   93.3180   15.2583 C.ar    1  UNL1        0.1445
     31 N          69.2003   94.3241   16.1817 N.ar    1  UNL1       -0.1268
     32 N          67.7626   93.9455   16.3810 N.ar    1  UNL1       -0.0595
@<TRIPOS>BOND
     1     9    10    1
     2    10    11   ar
     3    11    12   ar
     4    12    13   ar
     5    13    16    1
     6    16    17   ar
     7    17    18   ar
     8    18    19   ar
     9    19    20   ar
    10    13    14   ar
    11    14     1    1
    12     1     2    2
    13     1     3   am
    14     3     4    1
    15     4     5    1
    16     5     6    1
    17     6     7    1
    18     7     8    1
    19     8    21    1
    20    21    22    1
    21    22    23   ar
    22    23    24   ar
    23    24    25   ar
    24    25    26   ar
    25    26    28    1
    26    28    29   ar
    27    29    30   ar
    28    30    31   ar
    29    31    32   ar
    30    26    27   ar
    31    14    15   ar
    32    15    10   ar
    33    20    16   ar
    34     8     3    1
    35    27    22   ar
    36    32    28   ar
@<TRIPOS>MOLECULE
*****
 32 36 0 0 0
SMALL
GASTEIGER

@<TRIPOS>ATOM
      1 C          63.3890   87.9454   13.1955 C.2     1  UNL1        0.2506
      2 O          63.5715   89.0248   12.1700 O.2     1  UNL1       -0.2699
      3 N          63.3475   88.2953   14.6535 N.am    1  UNL1       -0.2723
      4 C          63.1650   87.2159   15.6790 C.3     1  UNL1        0.1257
      5 C          63.1236   87.5659   17.1370 C.3     1  UNL1        0.1637
      6 O          63.2647   88.9952   17.5696 O.3     1  UNL1       -0.3502
      7 C          63.4472   90.0746   16.5441 C.3     1  UNL1        0.1622
      8 C          63.4886   89.7247   15.0861 C.3     1  UNL1        0.1096
      9 C          64.6307   82.9310   13.7553 C.3     1  UNL1        0.0310
     10 C          63.8688   84.0089   13.0428 C.ar    1  UNL1       -0.0216
     11 C          62.9658   83.6574   11.8978 C.ar    1  UNL1       -0.0026
     12 C          62.2039   84.7353   11.1853 C.ar    1  UNL1        0.0207
     13 C          62.3450   86.1646   11.6179 C.ar    1  UNL1        0.1072
     14 C          63.2479   86.5161   12.7629 C.ar    1  UNL1        0.0726
     15 C          64.0098   85.4382   13.4754 C.ar    1  UNL1        0.0018
     16 N          61.5830   87.2425   10.9054 N.ar    1  UNL1       -0.1477
     17 N          60.3835   87.9713   11.4345 N.ar    1  UNL1       -0.1447
     18 C          59.9460   88.9601   10.3948 C.ar    1  UNL1        0.1446
     19 C          60.8751   88.8424    9.2231 C.ar    1  UNL1        0.1446
     20 N          61.8869   87.7809    9.5387 N.ar    1  UNL1       -0.1447
     21 C          63.6711   90.8041   14.0606 C.3     1  UNL1        0.0488
     22 C          65.0359   91.3705   13.8026 C.ar    1  UNL1       -0.0189
     23 C          66.1519   91.1079   14.7697 C.ar    1  UNL1       -0.0041
     24 C          67.5168   91.6742   14.5117 C.ar    1  UNL1        0.0012
     25 C          67.7655   92.5032   13.2866 C.ar    1  UNL1        0.0192
     26 C          66.6493   92.7658   12.3194 C.ar    1  UNL1        0.0842
     27 C          65.2845   92.1994   12.5775 C.ar    1  UNL1        0.0150
     28 N          66.8980   93.5947   11.0943 N.ar    1  UNL1       -0.2089
     29 C          66.0961   94.7846   10.6571 C.ar    1  UNL1        0.1245
     30 C          66.6947   95.3046    9.3838 C.ar    1  UNL1        0.1445
     31 N          67.8667   94.4361    9.0341 N.ar    1  UNL1       -0.1268
     32 N          67.9923   93.3793   10.0912 N.ar    1  UNL1       -0.0595
@<TRIPOS>BOND
     1     9    10    1
     2    10    11   ar
     3    11    12   ar
     4    12    13   ar
     5    13    16    1
     6    16    17   ar
     7    17    18   ar
     8    18    19   ar
     9    19    20   ar
    10    13    14   ar
    11    14     1    1
    12     1     2    2
    13     1     3   am
    14     3     4    1
    15     4     5    1
    16     5     6    1
    17     6     7    1
    18     7     8    1
    19     8    21    1
    20    21    22    1
    21    22    23   ar
    22    23    24   ar
    23    24    25   ar
    24    25    26   ar
    25    26    28    1
    26    28    29   ar
    27    29    30   ar
    28    30    31   ar
    29    31    32   ar
    30    26    27   ar
    31    14    15   ar
    32    15    10   ar
    33    20    16   ar
    34     8     3    1
    35    27    22   ar
    36    32    28   ar
@<TRIPOS>MOLECULE
*****
 32 36 0 0 0
SMALL
GASTEIGER

@<TRIPOS>ATOM
      1 C          62.8456   88.8845   11.9895 C.2     1  UNL1        0.2506
      2 O          62.9182   87.6548   12.8454 O.2     1  UNL1       -0.2699
      3 N          61.8965   88.9357   10.8292 N.am    1  UNL1       -0.2723
      4 C          61.8239   90.1655    9.9733 C.3     1  UNL1        0.1257
      5 C          60.8747   90.2167    8.8129 C.3     1  UNL1        0.1637
      6 O          59.9981   89.0382    8.5084 O.3     1  UNL1       -0.3502
      7 C          60.0707   87.8085    9.3643 C.3     1  UNL1        0.1622
      8 C          61.0198   87.7572   10.5246 C.3     1  UNL1        0.1096
      9 C          65.3434   93.1607   10.4162 C.3     1  UNL1        0.0310
     10 C          64.9712   92.2011   11.5073 C.ar    1  UNL1       -0.0216
     11 C          65.4755   92.4199   12.9029 C.ar    1  UNL1       -0.0026
     12 C          65.1032   91.4603   13.9940 C.ar    1  UNL1        0.0207
     13 C          64.2266   90.2818   13.6896 C.ar    1  UNL1        0.1072
     14 C          63.7223   90.0630   12.2940 C.ar    1  UNL1        0.0726
     15 C          64.0946   91.0226   11.2029 C.ar    1  UNL1        0.0018
     16 N          63.8544   89.3222   14.7807 N.ar    1  UNL1       -0.1477
     17 N          64.3611   87.9184   14.9311 N.ar    1  UNL1       -0.1447
     18 C          63.7299   87.3265   16.1564 C.ar    1  UNL1        0.1446
     19 C          62.8331   88.3645   16.7633 C.ar    1  UNL1        0.1446
     20 N          62.9100   89.5979   15.9131 N.ar    1  UNL1       -0.1447
     21 C          61.0924   86.5275   11.3805 C.3     1  UNL1        0.0488
     22 C          61.9930   85.3936   10.9893 C.ar    1  UNL1       -0.0189
     23 C          62.7199   85.4313    9.6779 C.ar    1  UNL1       -0.0041
     24 C          63.6206   84.2973    9.2866 C.ar    1  UNL1        0.0012
     25 C          63.7942   83.1256   10.2069 C.ar    1  UNL1        0.0192
     26 C          63.0671   83.0879   11.5184 C.ar    1  UNL1        0.0842
     27 C          62.1665   84.2218   11.9096 C.ar    1  UNL1        0.0150
     28 N          63.2407   81.9162   12.4387 N.ar    1  UNL1       -0.2089
     29 C          62.5504   80.5900   12.3175 C.ar    1  UNL1        0.1245
     30 C          63.0181   79.7191   13.4457 C.ar    1  UNL1        0.1445
     31 N          63.9975   80.5070   14.2642 N.ar    1  UNL1       -0.1268
     32 N          64.1351   81.8649   13.6419 N.ar    1  UNL1       -0.0595
@<TRIPOS>BOND
     1     9    10    1
     2    10    11   ar
     3    11    12   ar
     4    12    13   ar
     5    13    16    1
     6    16    17   ar
     7    17    18   ar
     8    18    19   ar
     9    19    20   ar
    10    13    14   ar
    11    14     1    1
    12     1     2    2
    13     1     3   am
    14     3     4    1
    15     4     5    1
    16     5     6    1
    17     6     7    1
    18     7     8    1
    19     8    21    1
    20    21    22    1
    21    22    23   ar
    22    23    24   ar
    23    24    25   ar
    24    25    26   ar
    25    26    28    1
    26    28    29   ar
    27    29    30   ar
    28    30    31   ar
    29    31    32   ar
    30    26    27   ar
    31    14    15   ar
    32    15    10   ar
    33    20    16   ar
    34     8     3    1
    35    27    22   ar
    36    32    28   ar
@<TRIPOS>MOLECULE
*****
 32 36 0 0 0
SMALL
GASTEIGER

@<TRIPOS>ATOM
      1 C          62.3607   88.0084   11.1595 C.2     1  UNL1        0.2506
      2 O          63.4764   88.6909   10.4250 O.2     1  UNL1       -0.2699
      3 N          61.0929   88.7527   11.4570 N.am    1  UNL1       -0.2723
      4 C          59.9772   88.0702   12.1914 C.3     1  UNL1        0.1257
      5 C          58.7093   88.8145   12.4889 C.3     1  UNL1        0.1637
      6 O          58.5571   90.2413   12.0519 O.3     1  UNL1       -0.3502
      7 C          59.6728   90.9238   11.3174 C.3     1  UNL1        0.1622
      8 C          60.9407   90.1795   11.0199 C.3     1  UNL1        0.1096
      9 C          64.0176   84.5188   14.6349 C.3     1  UNL1        0.0310
     10 C          63.3414   84.8368   13.3342 C.ar    1  UNL1       -0.0216
     11 C          62.8174   83.7279   12.4706 C.ar    1  UNL1       -0.0026
     12 C          62.1412   84.0458   11.1700 C.ar    1  UNL1        0.0207
     13 C          61.9890   85.4726   10.7329 C.ar    1  UNL1        0.1072
     14 C          62.5130   86.5815   11.5965 C.ar    1  UNL1        0.0726
     15 C          63.1892   86.2635   12.8972 C.ar    1  UNL1        0.0018
     16 N          61.3128   85.7905    9.4323 N.ar    1  UNL1       -0.1477
     17 N          61.8300   85.4556    8.0647 N.ar    1  UNL1       -0.1447
     18 C          60.8375   85.9573    7.0580 C.ar    1  UNL1        0.1446
     19 C          59.7069   86.6023    7.8035 C.ar    1  UNL1        0.1446
     20 N          60.0007   86.4992    9.2708 N.ar    1  UNL1       -0.1447
     21 C          62.0563   90.8620   10.2855 C.3     1  UNL1        0.0488
     22 C          63.2515   91.3669   11.0383 C.ar    1  UNL1       -0.0189
     23 C          63.3555   91.1426   12.5177 C.ar    1  UNL1       -0.0041
     24 C          64.5507   91.6474   13.2706 C.ar    1  UNL1        0.0012
     25 C          65.6417   92.3766   12.5440 C.ar    1  UNL1        0.0192
     26 C          65.5376   92.6009   11.0645 C.ar    1  UNL1        0.0842
     27 C          64.3425   92.0961   10.3116 C.ar    1  UNL1        0.0150
     28 N          66.6286   93.3301   10.3378 N.ar    1  UNL1       -0.2089
     29 C          66.4982   94.6602    9.6567 C.ar    1  UNL1        0.1245
     30 C          67.8306   95.0093    9.0627 C.ar    1  UNL1        0.1445
     31 N          68.7844   93.8951    9.3767 N.ar    1  UNL1       -0.1268
     32 N          68.0416   92.8572   10.1648 N.ar    1  UNL1       -0.0595
@<TRIPOS>BOND
     1     9    10    1
     2    10    11   ar
     3    11    12   ar
     4    12    13   ar
     5    13    16    1
     6    16    17   ar
     7    17    18   ar
     8    18    19   ar
     9    19    20   ar
    10    13    14   ar
    11    14     1    1
    12     1     2    2
    13     1     3   am
    14     3     4    1
    15     4     5    1
    16     5     6    1
    17     6     7    1
    18     7     8    1
    19     8    21    1
    20    21    22    1
    21    22    23   ar
    22    23    24   ar
    23    24    25   ar
    24    25    26   ar
    25    26    28    1
    26    28    29   ar
    27    29    30   ar
    28    30    31   ar
    29    31    32   ar
    30    26    27   ar
    31    14    15   ar
    32    15    10   ar
    33    20    16   ar
    34     8     3    1
    35    27    22   ar
    36    32    28   ar
