@<TRIPOS>MOLECULE
*****
 33 38 0 0 0
SMALL
GASTEIGER

@<TRIPOS>ATOM
      1 C          62.0015   87.8050   11.1902 C.ar    1  UNL1        0.1170
      2 N          62.6758   89.0466   11.6937 N.ar    1  UNL1       -0.2264
      3 C          63.6402   88.9642   12.8397 C.ar    1  UNL1        0.1602
      4 N          63.9301   87.6401   13.4822 N.ar    1  UNL1       -0.2091
      5 C          63.2558   86.3985   12.9787 C.ar    1  UNL1        0.1690
      6 C          62.2915   86.4809   11.8327 C.ar    1  UNL1        0.1850
      7 O          61.6171   85.2392   11.3292 O.3     1  UNL1       -0.4695
      8 C          61.9071   83.9152   11.9716 C.3     1  UNL1        0.2277
      9 C          62.8714   83.8327   13.1177 C.3     1  UNL1        0.1477
     10 C          63.1614   82.5087   13.7601 C.3     1  UNL1        0.1657
     11 O          64.1257   82.4263   14.9061 O.3     1  UNL1       -0.3501
     12 C          64.8000   83.6679   15.4096 C.3     1  UNL1        0.1636
     13 C          64.5101   84.9920   14.7672 C.3     1  UNL1        0.1244
     14 N          63.5458   85.0744   13.6212 N.pl3   1  UNL1       -0.2840
     15 C          64.3145   90.2058   13.3433 C.2     1  UNL1        0.0230
     16 C          64.6489   90.3398   14.7994 C.2     1  UNL1       -0.0005
     17 C          65.3233   91.5814   15.3030 C.2     1  UNL1        0.0010
     18 C          65.6632   92.6892   14.3503 C.2     1  UNL1        0.0153
     19 C          65.3288   92.5552   12.8943 C.2     1  UNL1        0.0669
     20 N          65.5402   93.4736   11.7272 N.2     1  UNL1       -0.2478
     21 C          64.9966   92.7995   10.5025 C.2     1  UNL1        0.0946
     22 C          64.4491   91.4646   10.9125 C.2     1  UNL1        0.0046
     23 C          64.6545   91.3135   12.3907 C.3     1  UNL1        0.0888
     24 C          61.0372   87.8873   10.0442 C.3     1  UNL1        0.1533
     25 C          61.9985   86.8709    9.5031 C.3     1  UNL1        0.0599
     26 C          61.7780   86.2799    8.1422 C.3     1  UNL1        0.1443
     27 O          60.5960   86.7054    7.3223 O.3     1  UNL1       -0.3536
     28 C          59.6348   87.7218    7.8635 C.3     1  UNL1        0.1443
     29 C          59.8553   88.3128    9.2243 C.3     1  UNL1        0.0599
     30 C          59.7844   89.8630   11.9223 C.3     1  UNL1        0.1764
     31 S          60.4108   88.8751   10.9833 S.O2    1  UNL1       -0.0062
     32 O          59.9757   88.2529   11.7702 O.2     1  UNL1       -0.1727
     33 O          60.8698   90.0012   10.1049 O.2     1  UNL1       -0.1727
@<TRIPOS>BOND
     1    30    31    1
     2    31    32    2
     3    31    33    2
     4    31    24    1
     5    24     1    1
     6     1     2   ar
     7     2     3   ar
     8     3    15    1
     9    15    16    2
    10    16    17    1
    11    17    18    2
    12    18    19    1
    13    19    20    2
    14    20    21    1
    15    21    22    2
    16    22    23    1
    17     3     4   ar
    18     4     5   ar
    19     5     6   ar
    20     6     7    1
    21     7     8    1
    22     9     8    1
    23     9    10    1
    24    10    11    1
    25    11    12    1
    26    12    13    1
    27    13    14    1
    28    24    25    1
    29    25    26    1
    30    26    27    1
    31    27    28    1
    32    28    29    1
    33    29    24    1
    34     6     1   ar
    35    14     9    1
    36    23    15    1
    37    14     5    1
    38    23    19    1
@<TRIPOS>MOLECULE
*****
 33 38 0 0 0
SMALL
GASTEIGER

@<TRIPOS>ATOM
      1 C          61.7528   87.3786   10.9682 C.ar    1  UNL1        0.1170
      2 N          62.0016   86.1264   11.7556 N.ar    1  UNL1       -0.2264
      3 C          62.9622   86.1432   12.9076 C.ar    1  UNL1        0.1602
      4 N          63.6741   87.4121   13.2721 N.ar    1  UNL1       -0.2091
      5 C          63.4253   88.6644   12.4847 C.ar    1  UNL1        0.1690
      6 C          62.4647   88.6477   11.3328 C.ar    1  UNL1        0.1850
      7 O          62.2160   89.8999   10.5454 O.3     1  UNL1       -0.4695
      8 C          62.9278   91.1689   10.9100 C.3     1  UNL1        0.2277
      9 C          63.8885   91.1857   12.0619 C.3     1  UNL1        0.1477
     10 C          64.6003   92.4547   12.4265 C.3     1  UNL1        0.1657
     11 O          65.5609   92.4714   13.5784 O.3     1  UNL1       -0.3501
     12 C          65.8097   91.2191   14.3658 C.3     1  UNL1        0.1636
     13 C          65.0978   89.9501   14.0012 C.3     1  UNL1        0.1244
     14 N          64.1372   89.9334   12.8493 N.pl3   1  UNL1       -0.2840
     15 C          63.2110   84.8909   13.6950 C.2     1  UNL1        0.0230
     16 C          63.4548   84.9702   15.1730 C.2     1  UNL1       -0.0005
     17 C          63.7035   83.7180   15.9603 C.2     1  UNL1        0.0010
     18 C          63.7085   82.3864   15.2697 C.2     1  UNL1        0.0153
     19 C          63.4647   82.3071   13.7918 C.2     1  UNL1        0.0669
     20 N          63.4105   81.1454   12.8444 N.2     1  UNL1       -0.2478
     21 C          63.1282   81.6797   11.4715 C.2     1  UNL1        0.0946
     22 C          63.0080   83.1715   11.5704 C.2     1  UNL1        0.0046
     23 C          63.2160   83.5593   13.0045 C.3     1  UNL1        0.0888
     24 C          60.7923   87.3619    9.8163 C.3     1  UNL1        0.1533
     25 C          61.8651   86.4649    9.2738 C.3     1  UNL1        0.0599
     26 C          61.7207   85.8647    7.9068 C.3     1  UNL1        0.1443
     27 O          60.5032   86.1616    7.0821 O.3     1  UNL1       -0.3536
     28 C          59.4304   87.0586    7.6247 C.3     1  UNL1        0.1443
     29 C          59.5749   87.6587    8.9917 C.3     1  UNL1        0.0599
     30 C          59.3137   89.1676   11.7015 C.3     1  UNL1        0.1764
     31 S          60.0530   88.2647   10.7589 S.O2    1  UNL1       -0.0062
     32 O          60.0313   87.7057   11.6985 O.2     1  UNL1       -0.1727
     33 O          59.8993   89.2803    9.6657 O.2     1  UNL1       -0.1727
@<TRIPOS>BOND
     1    30    31    1
     2    31    32    2
     3    31    33    2
     4    31    24    1
     5    24     1    1
     6     1     2   ar
     7     2     3   ar
     8     3    15    1
     9    15    16    2
    10    16    17    1
    11    17    18    2
    12    18    19    1
    13    19    20    2
    14    20    21    1
    15    21    22    2
    16    22    23    1
    17     3     4   ar
    18     4     5   ar
    19     5     6   ar
    20     6     7    1
    21     7     8    1
    22     9     8    1
    23     9    10    1
    24    10    11    1
    25    11    12    1
    26    12    13    1
    27    13    14    1
    28    24    25    1
    29    25    26    1
    30    26    27    1
    31    27    28    1
    32    28    29    1
    33    29    24    1
    34     6     1   ar
    35    14     9    1
    36    23    15    1
    37    14     5    1
    38    23    19    1
@<TRIPOS>MOLECULE
*****
 33 38 0 0 0
SMALL
GASTEIGER

@<TRIPOS>ATOM
      1 C          61.9080   87.6529   10.9742 C.ar    1  UNL1        0.1170
      2 N          62.5415   88.9594   11.3504 N.ar    1  UNL1       -0.2264
      3 C          63.5232   89.0183   12.4831 C.ar    1  UNL1        0.1602
      4 N          63.8713   87.7707   13.2395 N.ar    1  UNL1       -0.2091
      5 C          63.2378   86.4641   12.8632 C.ar    1  UNL1        0.1690
      6 C          62.2561   86.4052   11.7306 C.ar    1  UNL1        0.1850
      7 O          61.6226   85.0986   11.3543 O.3     1  UNL1       -0.4695
      8 C          61.9707   83.8510   12.1107 C.3     1  UNL1        0.2277
      9 C          62.9524   83.9099   13.2434 C.3     1  UNL1        0.1477
     10 C          63.3006   82.6622   13.9997 C.3     1  UNL1        0.1657
     11 O          64.2822   82.7211   15.1324 O.3     1  UNL1       -0.3501
     12 C          64.9157   84.0277   15.5086 C.3     1  UNL1        0.1636
     13 C          64.5676   85.2753   14.7523 C.3     1  UNL1        0.1244
     14 N          63.5859   85.2164   13.6196 N.pl3   1  UNL1       -0.2840
     15 C          64.1567   90.3249   12.8594 C.2     1  UNL1        0.0230
     16 C          64.7727   91.1918   11.8015 C.2     1  UNL1       -0.0005
     17 C          65.4063   92.4984   12.1778 C.2     1  UNL1        0.0010
     18 C          65.4237   92.9380   13.6119 C.2     1  UNL1        0.0153
     19 C          64.8076   92.0711   14.6696 C.2     1  UNL1        0.0669
     20 N          64.6747   92.2401   16.1541 N.2     1  UNL1       -0.2478
     21 C          63.9590   91.0381   16.6953 C.2     1  UNL1        0.0946
     22 C          63.6497   90.1261   15.5453 C.2     1  UNL1        0.0046
     23 C          64.1741   90.7645   14.2933 C.3     1  UNL1        0.0888
     24 C          60.9263   87.5940    9.8415 C.3     1  UNL1        0.1533
     25 C          61.9526   86.6177    9.3478 C.3     1  UNL1        0.0599
     26 C          61.7592   85.9288    8.0295 C.3     1  UNL1        0.1443
     27 O          60.5394   86.2160    7.2049 O.3     1  UNL1       -0.3536
     28 C          59.5132   87.1922    7.6987 C.3     1  UNL1        0.1443
     29 C          59.7067   87.8812    9.0170 C.3     1  UNL1        0.0599
     30 C          59.5557   89.5874   11.6158 C.3     1  UNL1        0.1764
     31 S          60.2410   88.5906   10.7286 S.O2    1  UNL1       -0.0062
     32 O          59.9096   87.9981   11.5859 O.2     1  UNL1       -0.1727
     33 O          60.5386   89.6770    9.7380 O.2     1  UNL1       -0.1727
@<TRIPOS>BOND
     1    30    31    1
     2    31    32    2
     3    31    33    2
     4    31    24    1
     5    24     1    1
     6     1     2   ar
     7     2     3   ar
     8     3    15    1
     9    15    16    2
    10    16    17    1
    11    17    18    2
    12    18    19    1
    13    19    20    2
    14    20    21    1
    15    21    22    2
    16    22    23    1
    17     3     4   ar
    18     4     5   ar
    19     5     6   ar
    20     6     7    1
    21     7     8    1
    22     9     8    1
    23     9    10    1
    24    10    11    1
    25    11    12    1
    26    12    13    1
    27    13    14    1
    28    24    25    1
    29    25    26    1
    30    26    27    1
    31    27    28    1
    32    28    29    1
    33    29    24    1
    34     6     1   ar
    35    14     9    1
    36    23    15    1
    37    14     5    1
    38    23    19    1
@<TRIPOS>MOLECULE
*****
 33 38 0 0 0
SMALL
GASTEIGER

@<TRIPOS>ATOM
      1 C          63.4848   88.8896   13.0146 C.ar    1  UNL1        0.1170
      2 N          63.8140   87.5048   13.4879 N.ar    1  UNL1       -0.2264
      3 C          63.2122   86.3146   12.8012 C.ar    1  UNL1        0.1602
      4 N          62.2814   86.5093   11.6412 N.ar    1  UNL1       -0.2091
      5 C          61.9522   87.8941   11.1679 C.ar    1  UNL1        0.1690
      6 C          62.5539   89.0842   11.8545 C.ar    1  UNL1        0.1850
      7 O          62.2247   90.4690   11.3812 O.3     1  UNL1       -0.4695
      8 C          61.2939   90.6636   10.2213 C.3     1  UNL1        0.2277
      9 C          60.6922   89.4735    9.5345 C.3     1  UNL1        0.1477
     10 C          59.7613   89.6682    8.3745 C.3     1  UNL1        0.1657
     11 O          59.1597   88.4780    7.6879 O.3     1  UNL1       -0.3501
     12 C          59.4888   87.0933    8.1612 C.3     1  UNL1        0.1636
     13 C          60.4197   86.8986    9.3212 C.3     1  UNL1        0.1244
     14 N          61.0213   88.0887   10.0078 N.pl3   1  UNL1       -0.2840
     15 C          63.5414   84.9298   13.2745 C.2     1  UNL1        0.0230
     16 C          63.6954   84.6553   14.7411 C.2     1  UNL1       -0.0005
     17 C          64.0245   83.2705   15.2144 C.2     1  UNL1        0.0010
     18 C          64.1997   82.1603   14.2211 C.2     1  UNL1        0.0153
     19 C          64.0458   82.4348   12.7545 C.2     1  UNL1        0.0669
     20 N          64.1591   81.5480   11.5500 N.2     1  UNL1       -0.2478
     21 C          63.9000   82.3847   10.3323 C.2     1  UNL1        0.0946
     22 C          63.6265   83.7886   10.7842 C.2     1  UNL1        0.0046
     23 C          63.7166   83.8196   12.2812 C.3     1  UNL1        0.0888
     24 C          64.0865   90.0797   13.7013 C.3     1  UNL1        0.1533
     25 C          64.2826   90.4788   12.2687 C.3     1  UNL1        0.0599
     26 C          64.9398   91.7859   11.9375 C.3     1  UNL1        0.1443
     27 O          65.4008   92.6939   13.0390 O.3     1  UNL1       -0.3536
     28 C          65.2046   92.2947   14.4715 C.3     1  UNL1        0.1443
     29 C          64.5475   90.9877   14.8026 C.3     1  UNL1        0.0599
     30 C          63.2762   88.4547   16.0894 C.3     1  UNL1        0.1764
     31 S          63.6814   89.2672   14.8953 S.O2    1  UNL1       -0.0062
     32 O          64.5757   88.6856   15.1355 O.2     1  UNL1       -0.1727
     33 O          62.3159   89.8868   14.8536 O.2     1  UNL1       -0.1727
@<TRIPOS>BOND
     1    30    31    1
     2    31    32    2
     3    31    33    2
     4    31    24    1
     5    24     1    1
     6     1     2   ar
     7     2     3   ar
     8     3    15    1
     9    15    16    2
    10    16    17    1
    11    17    18    2
    12    18    19    1
    13    19    20    2
    14    20    21    1
    15    21    22    2
    16    22    23    1
    17     3     4   ar
    18     4     5   ar
    19     5     6   ar
    20     6     7    1
    21     7     8    1
    22     9     8    1
    23     9    10    1
    24    10    11    1
    25    11    12    1
    26    12    13    1
    27    13    14    1
    28    24    25    1
    29    25    26    1
    30    26    27    1
    31    27    28    1
    32    28    29    1
    33    29    24    1
    34     6     1   ar
    35    14     9    1
    36    23    15    1
    37    14     5    1
    38    23    19    1
@<TRIPOS>MOLECULE
*****
 33 38 0 0 0
SMALL
GASTEIGER

@<TRIPOS>ATOM
      1 C          61.7384   86.9006   10.3077 C.ar    1  UNL1        0.1170
      2 N          61.8403   85.6149   11.0737 N.ar    1  UNL1       -0.2264
      3 C          62.5645   85.5797   12.3869 C.ar    1  UNL1        0.1602
      4 N          63.1867   86.8301   12.9341 N.ar    1  UNL1       -0.2091
      5 C          63.0847   88.1157   12.1681 C.ar    1  UNL1        0.1690
      6 C          62.3606   88.1510   10.8550 C.ar    1  UNL1        0.1850
      7 O          62.2586   89.4367   10.0890 O.3     1  UNL1       -0.4695
      8 C          62.8807   90.6871   10.6362 C.3     1  UNL1        0.2277
      9 C          63.6049   90.6518   11.9494 C.3     1  UNL1        0.1477
     10 C          64.2270   91.9022   12.4966 C.3     1  UNL1        0.1657
     11 O          64.9512   91.8669   13.8097 O.3     1  UNL1       -0.3501
     12 C          65.0531   90.5812   14.5757 C.3     1  UNL1        0.1636
     13 C          64.4310   89.3309   14.0285 C.3     1  UNL1        0.1244
     14 N          63.7069   89.3662   12.7154 N.pl3   1  UNL1       -0.2840
     15 C          62.6665   84.2940   13.1528 C.2     1  UNL1        0.0230
     16 C          62.5547   84.3013   14.6487 C.2     1  UNL1       -0.0005
     17 C          62.6566   83.0157   15.4146 C.2     1  UNL1        0.0010
     18 C          62.8705   81.7227   14.6847 C.2     1  UNL1        0.0153
     19 C          62.9823   81.7155   13.1890 C.2     1  UNL1        0.0669
     20 N          63.1926   80.6043   12.2035 N.2     1  UNL1       -0.2478
     21 C          63.2206   81.2032   10.8286 C.2     1  UNL1        0.0946
     22 C          63.0276   82.6845   10.9642 C.2     1  UNL1        0.0046
     23 C          62.8803   83.0012   12.4230 C.3     1  UNL1        0.0888
     24 C          61.0142   86.9359    8.9946 C.3     1  UNL1        0.1533
     25 C          60.1310   87.8390    9.8035 C.3     1  UNL1        0.0599
     26 C          58.9177   88.4595    9.1767 C.3     1  UNL1        0.1443
     27 O          58.5876   88.1769    7.7409 O.3     1  UNL1       -0.3536
     28 C          59.4709   87.2738    6.9321 C.3     1  UNL1        0.1443
     29 C          60.6842   86.6533    7.5589 C.3     1  UNL1        0.0599
     30 C          63.2837   85.1051    8.2890 C.3     1  UNL1        0.1764
     31 S          62.1489   86.0205    8.6418 S.O2    1  UNL1       -0.0062
     32 O          63.0413   86.6333    8.7968 O.2     1  UNL1       -0.1727
     33 O          61.1704   84.9258    8.3348 O.2     1  UNL1       -0.1727
@<TRIPOS>BOND
     1    30    31    1
     2    31    32    2
     3    31    33    2
     4    31    24    1
     5    24     1    1
     6     1     2   ar
     7     2     3   ar
     8     3    15    1
     9    15    16    2
    10    16    17    1
    11    17    18    2
    12    18    19    1
    13    19    20    2
    14    20    21    1
    15    21    22    2
    16    22    23    1
    17     3     4   ar
    18     4     5   ar
    19     5     6   ar
    20     6     7    1
    21     7     8    1
    22     9     8    1
    23     9    10    1
    24    10    11    1
    25    11    12    1
    26    12    13    1
    27    13    14    1
    28    24    25    1
    29    25    26    1
    30    26    27    1
    31    27    28    1
    32    28    29    1
    33    29    24    1
    34     6     1   ar
    35    14     9    1
    36    23    15    1
    37    14     5    1
    38    23    19    1
@<TRIPOS>MOLECULE
*****
 33 38 0 0 0
SMALL
GASTEIGER

@<TRIPOS>ATOM
      1 C          63.1787   85.8318   12.5657 C.ar    1  UNL1        0.1170
      2 N          63.6316   86.9257   13.4868 N.ar    1  UNL1       -0.2264
      3 C          63.2435   88.3479   13.2098 C.ar    1  UNL1        0.1602
      4 N          62.4026   88.6763   12.0119 N.ar    1  UNL1       -0.2091
      5 C          61.9497   87.5824   11.0909 C.ar    1  UNL1        0.1690
      6 C          62.3378   86.1602   11.3678 C.ar    1  UNL1        0.1850
      7 O          61.8849   85.0663   10.4467 O.3     1  UNL1       -0.4695
      8 C          61.0440   85.3946    9.2488 C.3     1  UNL1        0.2277
      9 C          60.6559   86.8169    8.9719 C.3     1  UNL1        0.1477
     10 C          59.8150   87.1452    7.7740 C.3     1  UNL1        0.1657
     11 O          59.4270   88.5674    7.4971 O.3     1  UNL1       -0.3501
     12 C          59.8799   89.6613    8.4181 C.3     1  UNL1        0.1636
     13 C          60.7208   89.3330    9.6160 C.3     1  UNL1        0.1244
     14 N          61.1088   87.9108    9.8929 N.pl3   1  UNL1       -0.2840
     15 C          63.6964   89.4418   14.1309 C.2     1  UNL1        0.0230
     16 C          63.4560   89.3269   15.6071 C.2     1  UNL1       -0.0005
     17 C          63.9088   90.4207   16.5281 C.2     1  UNL1        0.0010
     18 C          64.6021   91.6296   15.9730 C.2     1  UNL1        0.0153
     19 C          64.8425   91.7445   14.4969 C.2     1  UNL1        0.0669
     20 N          65.4951   92.8094   13.6661 N.2     1  UNL1       -0.2478
     21 C          65.4456   92.3737   12.2316 C.2     1  UNL1        0.0946
     22 C          64.7624   91.0395   12.1759 C.2     1  UNL1        0.0046
     23 C          64.3896   90.6506   13.5758 C.3     1  UNL1        0.0888
     24 C          63.5667   84.4096   12.8426 C.3     1  UNL1        0.1533
     25 C          63.9467   84.5060   11.3947 C.3     1  UNL1        0.0599
     26 C          64.5358   83.3184   10.6932 C.3     1  UNL1        0.1443
     27 O          64.7451   82.0341   11.4395 O.3     1  UNL1       -0.3536
     28 C          64.3652   81.9377   12.8874 C.3     1  UNL1        0.1443
     29 C          63.7760   83.1254   13.5889 C.3     1  UNL1        0.0599
     30 C          62.5374   85.2045   15.5461 C.3     1  UNL1        0.1764
     31 S          63.0521   84.8070   14.1943 S.O2    1  UNL1       -0.0062
     32 O          61.9661   84.8287   14.0681 O.2     1  UNL1       -0.1727
     33 O          64.4591   84.8756   14.7099 O.2     1  UNL1       -0.1727
@<TRIPOS>BOND
     1    30    31    1
     2    31    32    2
     3    31    33    2
     4    31    24    1
     5    24     1    1
     6     1     2   ar
     7     2     3   ar
     8     3    15    1
     9    15    16    2
    10    16    17    1
    11    17    18    2
    12    18    19    1
    13    19    20    2
    14    20    21    1
    15    21    22    2
    16    22    23    1
    17     3     4   ar
    18     4     5   ar
    19     5     6   ar
    20     6     7    1
    21     7     8    1
    22     9     8    1
    23     9    10    1
    24    10    11    1
    25    11    12    1
    26    12    13    1
    27    13    14    1
    28    24    25    1
    29    25    26    1
    30    26    27    1
    31    27    28    1
    32    28    29    1
    33    29    24    1
    34     6     1   ar
    35    14     9    1
    36    23    15    1
    37    14     5    1
    38    23    19    1
@<TRIPOS>MOLECULE
*****
 33 38 0 0 0
SMALL
GASTEIGER

@<TRIPOS>ATOM
      1 C          62.8427   85.1378   12.5060 C.ar    1  UNL1        0.1170
      2 N          62.0346   85.1573   11.2424 N.ar    1  UNL1       -0.2264
      3 C          61.7570   86.4585   10.5497 C.ar    1  UNL1        0.1602
      4 N          62.2875   87.7402   11.1204 N.ar    1  UNL1       -0.2091
      5 C          63.0957   87.7207   12.3840 C.ar    1  UNL1        0.1690
      6 C          63.3733   86.4196   13.0767 C.ar    1  UNL1        0.1850
      7 O          64.1814   86.4001   14.3403 O.3     1  UNL1       -0.4695
      8 C          64.7119   87.6817   14.9111 C.3     1  UNL1        0.2277
      9 C          64.4344   88.9829   14.2183 C.3     1  UNL1        0.1477
     10 C          64.9649   90.2646   14.7891 C.3     1  UNL1        0.1657
     11 O          64.6873   91.5657   14.0964 O.3     1  UNL1       -0.3501
     12 C          63.8792   91.5852   12.8328 C.3     1  UNL1        0.1636
     13 C          63.3487   90.3036   12.2620 C.3     1  UNL1        0.1244
     14 N          63.6262   89.0024   12.9548 N.pl3   1  UNL1       -0.2840
     15 C          60.9489   86.4780    9.2861 C.2     1  UNL1        0.0230
     16 C          59.6737   87.2655    9.2235 C.2     1  UNL1       -0.0005
     17 C          58.8655   87.2850    7.9599 C.2     1  UNL1        0.0010
     18 C          59.3326   86.5170    6.7590 C.2     1  UNL1        0.0153
     19 C          60.6077   85.7296    6.8217 C.2     1  UNL1        0.0669
     20 N          61.3146   84.8815    5.8063 N.2     1  UNL1       -0.2478
     21 C          62.5596   84.3378    6.4422 C.2     1  UNL1        0.0946
     22 C          62.6221   84.8499    7.8507 C.2     1  UNL1        0.0046
     23 C          61.4158   85.7101    8.0853 C.3     1  UNL1        0.0888
     24 C          63.1203   83.8367   13.1987 C.3     1  UNL1        0.1533
     25 C          62.4002   84.5664   14.2938 C.3     1  UNL1        0.0599
     26 C          62.1744   83.8984   15.6177 C.3     1  UNL1        0.1443
     27 O          62.6686   82.5007   15.8466 O.3     1  UNL1       -0.3536
     28 C          63.3886   81.7711   14.7515 C.3     1  UNL1        0.1443
     29 C          63.6144   82.4390   13.4276 C.3     1  UNL1        0.0599
     30 C          64.3675   83.2811   10.5274 C.3     1  UNL1        0.1764
     31 S          63.7439   83.5589   11.8631 S.O2    1  UNL1       -0.0062
     32 O          64.6944   84.0985   11.8974 O.2     1  UNL1       -0.1727
     33 O          62.5556   82.7268   11.4813 O.2     1  UNL1       -0.1727
@<TRIPOS>BOND
     1    30    31    1
     2    31    32    2
     3    31    33    2
     4    31    24    1
     5    24     1    1
     6     1     2   ar
     7     2     3   ar
     8     3    15    1
     9    15    16    2
    10    16    17    1
    11    17    18    2
    12    18    19    1
    13    19    20    2
    14    20    21    1
    15    21    22    2
    16    22    23    1
    17     3     4   ar
    18     4     5   ar
    19     5     6   ar
    20     6     7    1
    21     7     8    1
    22     9     8    1
    23     9    10    1
    24    10    11    1
    25    11    12    1
    26    12    13    1
    27    13    14    1
    28    24    25    1
    29    25    26    1
    30    26    27    1
    31    27    28    1
    32    28    29    1
    33    29    24    1
    34     6     1   ar
    35    14     9    1
    36    23    15    1
    37    14     5    1
    38    23    19    1
@<TRIPOS>MOLECULE
*****
 33 38 0 0 0
SMALL
GASTEIGER

@<TRIPOS>ATOM
      1 C          62.2271   88.9573   11.4270 C.ar    1  UNL1        0.1170
      2 N          62.2916   88.1523   12.6910 N.ar    1  UNL1       -0.2264
      3 C          63.2115   88.5698   13.8000 C.ar    1  UNL1        0.1602
      4 N          64.0667   89.7922   13.6448 N.ar    1  UNL1       -0.2091
      5 C          64.0022   90.5972   12.3808 C.ar    1  UNL1        0.1690
      6 C          63.0824   90.1798   11.2719 C.ar    1  UNL1        0.1850
      7 O          63.0179   90.9849   10.0079 O.3     1  UNL1       -0.4695
      8 C          63.8731   92.2073    9.8528 C.3     1  UNL1        0.2277
      9 C          64.7930   92.6248   10.9617 C.3     1  UNL1        0.1477
     10 C          65.6482   93.8472   10.8066 C.3     1  UNL1        0.1657
     11 O          66.5680   94.2647   11.9155 O.3     1  UNL1       -0.3501
     12 C          66.6326   93.4596   13.1795 C.3     1  UNL1        0.1636
     13 C          65.7773   92.2372   13.3346 C.3     1  UNL1        0.1244
     14 N          64.8575   91.8198   12.2257 N.pl3   1  UNL1       -0.2840
     15 C          63.2760   87.7647   15.0640 C.2     1  UNL1        0.0230
     16 C          62.9616   88.4101   16.3811 C.2     1  UNL1       -0.0005
     17 C          63.0261   87.6051   17.6451 C.2     1  UNL1        0.0010
     18 C          63.4051   86.1547   17.5920 C.2     1  UNL1        0.0153
     19 C          63.7196   85.5094   16.2750 C.2     1  UNL1        0.0669
     20 N          64.1203   84.1099   15.9132 N.2     1  UNL1       -0.2478
     21 C          64.3035   84.0499   14.4257 C.2     1  UNL1        0.0946
     22 C          64.0159   85.4124   13.8681 C.2     1  UNL1        0.0046
     23 C          63.6551   86.3144   15.0110 C.3     1  UNL1        0.0888
     24 C          61.3073   88.5399   10.3181 C.3     1  UNL1        0.1533
     25 C          62.4753   87.6407   10.0401 C.3     1  UNL1        0.0599
     26 C          62.4288   86.6868    8.8835 C.3     1  UNL1        0.1443
     27 O          61.2142   86.6320    8.0048 O.3     1  UNL1       -0.3536
     28 C          60.0463   87.5312    8.2829 C.3     1  UNL1        0.1443
     29 C          60.0928   88.4851    9.4395 C.3     1  UNL1        0.0599
     30 C          59.6102   90.6281   11.6445 C.3     1  UNL1        0.1764
     31 S          60.4588   89.5840   10.9813 S.O2    1  UNL1       -0.0062
     32 O          60.6234   90.4811   10.3781 O.2     1  UNL1       -0.1727
     33 O          60.0144   88.5761   11.9995 O.2     1  UNL1       -0.1727
@<TRIPOS>BOND
     1    30    31    1
     2    31    32    2
     3    31    33    2
     4    31    24    1
     5    24     1    1
     6     1     2   ar
     7     2     3   ar
     8     3    15    1
     9    15    16    2
    10    16    17    1
    11    17    18    2
    12    18    19    1
    13    19    20    2
    14    20    21    1
    15    21    22    2
    16    22    23    1
    17     3     4   ar
    18     4     5   ar
    19     5     6   ar
    20     6     7    1
    21     7     8    1
    22     9     8    1
    23     9    10    1
    24    10    11    1
    25    11    12    1
    26    12    13    1
    27    13    14    1
    28    24    25    1
    29    25    26    1
    30    26    27    1
    31    27    28    1
    32    28    29    1
    33    29    24    1
    34     6     1   ar
    35    14     9    1
    36    23    15    1
    37    14     5    1
    38    23    19    1
@<TRIPOS>MOLECULE
*****
 33 38 0 0 0
SMALL
GASTEIGER

@<TRIPOS>ATOM
      1 C          57.7135   94.0459   -1.4876 C.ar    1  UNL1        0.1170
      2 N          58.2173   93.6028   -0.1461 N.ar    1  UNL1       -0.2264
      3 C          59.6749   93.3054    0.0469 C.ar    1  UNL1        0.1602
      4 N          60.6285   93.4512   -1.1017 N.ar    1  UNL1       -0.2091
      5 C          60.1247   93.8944   -2.4432 C.ar    1  UNL1        0.1690
      6 C          58.6672   94.1917   -2.6362 C.ar    1  UNL1        0.1850
      7 O          58.1634   94.6348   -3.9778 O.3     1  UNL1       -0.4695
      8 C          59.1171   94.7806   -5.1263 C.3     1  UNL1        0.2277
      9 C          60.5746   94.4833   -4.9334 C.3     1  UNL1        0.1477
     10 C          61.5283   94.6291   -6.0819 C.3     1  UNL1        0.1657
     11 O          62.9858   94.3317   -5.8889 O.3     1  UNL1       -0.3501
     12 C          63.4896   93.8886   -4.5474 C.3     1  UNL1        0.1636
     13 C          62.5359   93.7428   -3.3988 C.3     1  UNL1        0.1244
     14 N          61.0785   94.0401   -3.5918 N.pl3   1  UNL1       -0.2840
     15 C          60.1787   92.8623    1.3885 C.2     1  UNL1        0.0230
     16 C          59.2074   92.5350    2.4837 C.2     1  UNL1       -0.0005
     17 C          59.7112   92.0919    3.8253 C.2     1  UNL1        0.0010
     18 C          61.1864   91.9761    4.0716 C.2     1  UNL1        0.0153
     19 C          62.1576   92.3034    2.9764 C.2     1  UNL1        0.0669
     20 N          63.6566   92.2826    2.9248 N.2     1  UNL1       -0.2478
     21 C          64.0792   92.7129    1.5514 C.2     1  UNL1        0.0946
     22 C          62.8414   92.9996    0.7542 C.2     1  UNL1        0.0046
     23 C          61.6538   92.7465    1.6348 C.3     1  UNL1        0.0888
     24 C          56.2560   94.3432   -1.6806 C.3     1  UNL1        0.1533
     25 C          56.7498   95.7043   -1.2885 C.3     1  UNL1        0.0599
     26 C          55.7904   96.8541   -1.2023 C.3     1  UNL1        0.1443
     27 O          54.3371   96.6428   -1.5082 O.3     1  UNL1       -0.3536
     28 C          53.8434   95.2818   -1.9003 C.3     1  UNL1        0.1443
     29 C          54.8028   94.1320   -1.9865 C.3     1  UNL1        0.0599
     30 C          56.2809   91.4146   -2.3308 C.3     1  UNL1        0.1764
     31 S          56.2684   92.8790   -2.0057 S.O2    1  UNL1       -0.0062
     32 O          56.4845   92.3971   -1.0481 O.2     1  UNL1       -0.1727
     33 O          55.9660   93.1949   -3.4406 O.2     1  UNL1       -0.1727
@<TRIPOS>BOND
     1    30    31    1
     2    31    32    2
     3    31    33    2
     4    31    24    1
     5    24     1    1
     6     1     2   ar
     7     2     3   ar
     8     3    15    1
     9    15    16    2
    10    16    17    1
    11    17    18    2
    12    18    19    1
    13    19    20    2
    14    20    21    1
    15    21    22    2
    16    22    23    1
    17     3     4   ar
    18     4     5   ar
    19     5     6   ar
    20     6     7    1
    21     7     8    1
    22     9     8    1
    23     9    10    1
    24    10    11    1
    25    11    12    1
    26    12    13    1
    27    13    14    1
    28    24    25    1
    29    25    26    1
    30    26    27    1
    31    27    28    1
    32    28    29    1
    33    29    24    1
    34     6     1   ar
    35    14     9    1
    36    23    15    1
    37    14     5    1
    38    23    19    1
