@<TRIPOS>MOLECULE
*****
 27 29 0 0 0
SMALL
GASTEIGER

@<TRIPOS>ATOM
      1 C          63.7143   87.7370   13.5575 C.ar    1  UNL1        0.1345
      2 C          64.0088   89.1846   13.8180 C.ar    1  UNL1        0.0496
      3 C          63.5723   90.2279   12.8326 C.ar    1  UNL1        0.0597
      4 C          62.8414   89.8236   11.5867 C.ar    1  UNL1        0.0899
      5 CL         62.4049   90.8669   10.6012 Cl      1  UNL1       -0.0793
      6 C          62.5469   88.3761   11.3262 C.ar    1  UNL1        0.1129
      7 N          62.9833   87.3327   12.3116 N.ar    1  UNL1       -0.2281
      8 N          64.1507   86.6938   14.5429 N.pl3   1  UNL1       -0.2821
      9 H          64.6914   86.9505   15.3246 H       1  UNL1        0.1551
     10 C          62.9888   82.3903   13.9265 C.ar    1  UNL1        0.1683
     11 C          62.1152   83.2930   14.7462 C.ar    1  UNL1        0.1299
     12 N          62.5025   84.7275   14.9516 N.ar    1  UNL1       -0.2251
     13 C          63.7634   85.2593   14.3375 C.ar    1  UNL1        0.1527
     14 C          64.6370   84.3565   13.5178 C.ar    1  UNL1        0.1340
     15 N          64.2497   82.9221   13.3123 N.ar    1  UNL1       -0.2290
     16 N          62.2141   79.5213   13.5156 N.1     1  UNL1       -0.1892
     17 C          62.6014   80.9558   13.7210 C.1     1  UNL1        0.1214
     18 N          63.8668   91.6755   13.0930 N.pl3   1  UNL1       -0.3299
     19 H          63.1967   92.2415   13.5401 H       1  UNL1        0.1469
     20 C          65.1823   92.2607   12.6723 C.3     1  UNL1        0.1185
     21 C          66.3031   92.3754   13.6625 C.3     1  UNL1        0.1503
     22 C          67.6981   91.9946   13.2636 C.3     1  UNL1        0.1003
     23 N          68.8190   92.1093   14.2538 N.3     1  UNL1       -0.2933
     24 C          68.5449   92.6048   15.6429 C.3     1  UNL1        0.1011
     25 C          67.1499   92.9855   16.0417 C.3     1  UNL1        0.1592
     26 O          66.0290   92.8708   15.0515 O.3     1  UNL1       -0.3516
     27 H          69.5082   92.7413   13.8464 H       1  UNL1        0.1234
@<TRIPOS>BOND
     1    16    17    3
     2    17    10    1
     3    10    11   ar
     4    11    12   ar
     5    12    13   ar
     6    13     8    1
     7     8     1    1
     8     1     2   ar
     9     2     3   ar
    10     3    18    1
    11    18    20    1
    12    21    20    1
    13    21    22    1
    14    22    23    1
    15    23    24    1
    16    24    25    1
    17    25    26    1
    18     3     4   ar
    19     4     5    1
    20     4     6   ar
    21     6     7   ar
    22    13    14   ar
    23    14    15   ar
    24    15    10   ar
    25     7     1   ar
    26    26    21    1
    27     8     9    1
    28    18    19    1
    29    23    27    1
@<TRIPOS>MOLECULE
*****
 27 29 0 0 0
SMALL
GASTEIGER

@<TRIPOS>ATOM
      1 C          63.5233   83.8023   14.4878 C.ar    1  UNL1        0.1345
      2 C          63.1501   84.6038   13.2759 C.ar    1  UNL1        0.0496
      3 C          63.1229   83.9523   11.9251 C.ar    1  UNL1        0.0597
      4 C          63.4688   82.4994   11.7860 C.ar    1  UNL1        0.0899
      5 CL         63.4415   81.8480   10.4350 Cl      1  UNL1       -0.0793
      6 C          63.8419   81.6979   12.9977 C.ar    1  UNL1        0.1129
      7 N          63.8692   82.3493   14.3486 N.ar    1  UNL1       -0.2281
      8 N          63.5505   84.4537   15.8386 N.pl3   1  UNL1       -0.2821
      9 H          63.5749   83.8995   16.6520 H       1  UNL1        0.1551
     10 C          63.5210   88.9411   16.1736 C.ar    1  UNL1        0.1683
     11 C          64.2084   88.2800   15.0159 C.ar    1  UNL1        0.1299
     12 N          64.2182   86.7842   14.9042 N.ar    1  UNL1       -0.2251
     13 C          63.5407   85.9495   15.9503 C.ar    1  UNL1        0.1527
     14 C          62.8533   86.6107   17.1080 C.ar    1  UNL1        0.1340
     15 N          62.8435   88.1065   17.2196 N.ar    1  UNL1       -0.2290
     16 N          63.5013   91.9327   16.3969 N.1     1  UNL1       -0.1892
     17 C          63.5111   90.4369   16.2853 C.1     1  UNL1        0.1214
     18 N          62.7498   84.7538   10.7133 N.pl3   1  UNL1       -0.3299
     19 H          63.2757   84.6684    9.8855 H       1  UNL1        0.1469
     20 C          61.5752   85.6855   10.7628 C.3     1  UNL1        0.1185
     21 C          61.7941   87.1694   10.7556 C.3     1  UNL1        0.1503
     22 C          61.1696   88.0145    9.6852 C.3     1  UNL1        0.1003
     23 N          61.3885   89.4984    9.6781 N.3     1  UNL1       -0.2933
     24 C          62.2319   90.1372   10.7414 C.3     1  UNL1        0.1011
     25 C          62.8564   89.2921   11.8118 C.3     1  UNL1        0.1592
     26 O          62.6374   87.8081   11.8189 O.3     1  UNL1       -0.3516
     27 H          60.4670   89.9322    9.7329 H       1  UNL1        0.1234
@<TRIPOS>BOND
     1    16    17    3
     2    17    10    1
     3    10    11   ar
     4    11    12   ar
     5    12    13   ar
     6    13     8    1
     7     8     1    1
     8     1     2   ar
     9     2     3   ar
    10     3    18    1
    11    18    20    1
    12    21    20    1
    13    21    22    1
    14    22    23    1
    15    23    24    1
    16    24    25    1
    17    25    26    1
    18     3     4   ar
    19     4     5    1
    20     4     6   ar
    21     6     7   ar
    22    13    14   ar
    23    14    15   ar
    24    15    10   ar
    25     7     1   ar
    26    26    21    1
    27     8     9    1
    28    18    19    1
    29    23    27    1
@<TRIPOS>MOLECULE
*****
 27 29 0 0 0
SMALL
GASTEIGER

@<TRIPOS>ATOM
      1 C          63.9752   88.1267   13.9027 C.ar    1  UNL1        0.1345
      2 C          64.5009   89.5180   14.0981 C.ar    1  UNL1        0.0496
      3 C          64.2259   90.5749   13.0699 C.ar    1  UNL1        0.0597
      4 C          63.4252   90.2407   11.8463 C.ar    1  UNL1        0.0899
      5 CL         63.1503   91.2977   10.8181 Cl      1  UNL1       -0.0793
      6 C          62.8995   88.8495   11.6509 C.ar    1  UNL1        0.1129
      7 N          63.1745   87.7925   12.6791 N.ar    1  UNL1       -0.2281
      8 N          64.2501   87.0697   14.9309 N.pl3   1  UNL1       -0.2821
      9 H          64.6771   87.3123   15.7842 H       1  UNL1        0.1551
     10 C          63.1236   82.7901   14.1153 C.ar    1  UNL1        0.1683
     11 C          62.2070   83.6675   14.9152 C.ar    1  UNL1        0.1299
     12 N          62.5825   85.0941   15.1870 N.ar    1  UNL1       -0.2251
     13 C          63.8746   85.6432   14.6590 C.ar    1  UNL1        0.1527
     14 C          64.7912   84.7657   13.8592 C.ar    1  UNL1        0.1340
     15 N          64.4157   83.3392   13.5873 N.ar    1  UNL1       -0.2290
     16 N          62.3726   79.9369   13.5715 N.1     1  UNL1       -0.1892
     17 C          62.7481   81.3635   13.8434 C.1     1  UNL1        0.1214
     18 N          64.7516   91.9662   13.2653 N.pl3   1  UNL1       -0.3299
     19 H          64.1492   92.6812   13.5737 H       1  UNL1        0.1469
     20 C          66.1951   92.2679   12.9909 C.3     1  UNL1        0.1185
     21 C          66.6054   92.8224   11.6590 C.3     1  UNL1        0.1503
     22 C          65.7431   93.8396   10.9722 C.3     1  UNL1        0.1003
     23 N          66.1533   94.3941    9.6403 N.3     1  UNL1       -0.2933
     24 C          67.4259   93.9313    8.9949 C.3     1  UNL1        0.1011
     25 C          68.2882   92.9140    9.6817 C.3     1  UNL1        0.1592
     26 O          67.8779   92.3595   11.0137 O.3     1  UNL1       -0.3516
     27 H          66.2312   95.4048    9.7534 H       1  UNL1        0.1234
@<TRIPOS>BOND
     1    16    17    3
     2    17    10    1
     3    10    11   ar
     4    11    12   ar
     5    12    13   ar
     6    13     8    1
     7     8     1    1
     8     1     2   ar
     9     2     3   ar
    10     3    18    1
    11    18    20    1
    12    21    20    1
    13    21    22    1
    14    22    23    1
    15    23    24    1
    16    24    25    1
    17    25    26    1
    18     3     4   ar
    19     4     5    1
    20     4     6   ar
    21     6     7   ar
    22    13    14   ar
    23    14    15   ar
    24    15    10   ar
    25     7     1   ar
    26    26    21    1
    27     8     9    1
    28    18    19    1
    29    23    27    1
@<TRIPOS>MOLECULE
*****
 27 29 0 0 0
SMALL
GASTEIGER

@<TRIPOS>ATOM
      1 C          62.5995   90.1492   12.9739 C.ar    1  UNL1        0.1345
      2 C          63.3539   91.3137   12.4036 C.ar    1  UNL1        0.0496
      3 C          64.7215   91.6474   12.9214 C.ar    1  UNL1        0.0597
      4 C          65.3349   90.8167   14.0094 C.ar    1  UNL1        0.0899
      5 CL         66.7026   91.1504   14.5272 Cl      1  UNL1       -0.0793
      6 C          64.5806   89.6523   14.5797 C.ar    1  UNL1        0.1129
      7 N          63.2129   89.3186   14.0619 N.ar    1  UNL1       -0.2281
      8 N          61.2318   89.8156   12.4561 N.pl3   1  UNL1       -0.2821
      9 H          60.4363   90.2229   12.8690 H       1  UNL1        0.1551
     10 C          60.7651   86.9527    9.0158 C.ar    1  UNL1        0.1683
     11 C          61.1438   86.4387   10.3731 C.ar    1  UNL1        0.1299
     12 N          61.2994   87.3930   11.5199 N.ar    1  UNL1       -0.2251
     13 C          61.0763   88.8613   11.3093 C.ar    1  UNL1        0.1527
     14 C          60.6975   89.3752    9.9520 C.ar    1  UNL1        0.1340
     15 N          60.5419   88.4209    8.8053 N.ar    1  UNL1       -0.2290
     16 N          60.4539   85.0441    6.7222 N.1     1  UNL1       -0.1892
     17 C          60.6095   85.9984    7.8690 C.1     1  UNL1        0.1214
     18 N          65.4759   92.8118   12.3511 N.pl3   1  UNL1       -0.3299
     19 H          65.6948   93.5836   12.9218 H       1  UNL1        0.1469
     20 C          65.8967   92.8002   10.9114 C.3     1  UNL1        0.1185
     21 C          66.3013   94.0780   10.2380 C.3     1  UNL1        0.1503
     22 C          67.5042   94.1056    9.3423 C.3     1  UNL1        0.1003
     23 N          67.9088   95.3833    8.6689 N.3     1  UNL1       -0.2933
     24 C          67.1104   96.6337    8.8912 C.3     1  UNL1        0.1011
     25 C          65.9075   96.6062    9.7868 C.3     1  UNL1        0.1592
     26 O          65.5029   95.3283   10.4603 O.3     1  UNL1       -0.3516
     27 H          67.8998   95.2028    7.6651 H       1  UNL1        0.1234
@<TRIPOS>BOND
     1    16    17    3
     2    17    10    1
     3    10    11   ar
     4    11    12   ar
     5    12    13   ar
     6    13     8    1
     7     8     1    1
     8     1     2   ar
     9     2     3   ar
    10     3    18    1
    11    18    20    1
    12    21    20    1
    13    21    22    1
    14    22    23    1
    15    23    24    1
    16    24    25    1
    17    25    26    1
    18     3     4   ar
    19     4     5    1
    20     4     6   ar
    21     6     7   ar
    22    13    14   ar
    23    14    15   ar
    24    15    10   ar
    25     7     1   ar
    26    26    21    1
    27     8     9    1
    28    18    19    1
    29    23    27    1
@<TRIPOS>MOLECULE
*****
 27 29 0 0 0
SMALL
GASTEIGER

@<TRIPOS>ATOM
      1 C          61.7730   89.0299   11.5255 C.ar    1  UNL1        0.1345
      2 C          62.2499   87.6259   11.7524 C.ar    1  UNL1        0.0496
      3 C          62.0902   86.5961   10.6735 C.ar    1  UNL1        0.0597
      4 C          61.4536   86.9702    9.3679 C.ar    1  UNL1        0.0899
      5 CL         61.2939   85.9403    8.2890 Cl      1  UNL1       -0.0793
      6 C          60.9767   88.3741    9.1410 C.ar    1  UNL1        0.1129
      7 N          61.1364   89.4040   10.2199 N.ar    1  UNL1       -0.2281
      8 N          61.9327   90.0598   12.6044 N.pl3   1  UNL1       -0.2821
      9 H          61.1416   90.3987   13.0823 H       1  UNL1        0.1551
     10 C          66.0280   91.6000   13.6562 C.ar    1  UNL1        0.1683
     11 C          65.3420   92.0822   12.4125 C.ar    1  UNL1        0.1299
     12 N          63.9769   91.5687   12.0619 N.ar    1  UNL1       -0.2251
     13 C          63.2978   90.5732   12.9550 C.ar    1  UNL1        0.1527
     14 C          63.9839   90.0910   14.1987 C.ar    1  UNL1        0.1340
     15 N          65.3490   90.6044   14.5492 N.ar    1  UNL1       -0.2290
     16 N          68.7582   92.6268   14.3573 N.1     1  UNL1       -0.1892
     17 C          67.3931   92.1134   14.0067 C.1     1  UNL1        0.1214
     18 N          62.5671   85.1921   10.9004 N.pl3   1  UNL1       -0.3299
     19 H          62.5267   84.5343   10.1690 H       1  UNL1        0.1469
     20 C          63.1056   84.7904   12.2415 C.3     1  UNL1        0.1185
     21 C          62.8654   83.4041   12.7616 C.3     1  UNL1        0.1503
     22 C          62.5246   83.1939   14.2071 C.3     1  UNL1        0.1003
     23 N          62.2844   81.8076   14.7272 N.3     1  UNL1       -0.2933
     24 C          62.3850   80.6314   13.8016 C.3     1  UNL1        0.1011
     25 C          62.7258   80.8416   12.3561 C.3     1  UNL1        0.1592
     26 O          62.9660   82.2280   11.8360 O.3     1  UNL1       -0.3516
     27 H          61.3408   81.7978   15.1144 H       1  UNL1        0.1234
@<TRIPOS>BOND
     1    16    17    3
     2    17    10    1
     3    10    11   ar
     4    11    12   ar
     5    12    13   ar
     6    13     8    1
     7     8     1    1
     8     1     2   ar
     9     2     3   ar
    10     3    18    1
    11    18    20    1
    12    21    20    1
    13    21    22    1
    14    22    23    1
    15    23    24    1
    16    24    25    1
    17    25    26    1
    18     3     4   ar
    19     4     5    1
    20     4     6   ar
    21     6     7   ar
    22    13    14   ar
    23    14    15   ar
    24    15    10   ar
    25     7     1   ar
    26    26    21    1
    27     8     9    1
    28    18    19    1
    29    23    27    1
@<TRIPOS>MOLECULE
*****
 27 29 0 0 0
SMALL
GASTEIGER

@<TRIPOS>ATOM
      1 C          61.0438   88.9104   11.1911 C.ar    1  UNL1        0.1345
      2 C          61.8808   87.6657   11.2043 C.ar    1  UNL1        0.0496
      3 C          61.8133   86.7043   10.0549 C.ar    1  UNL1        0.0597
      4 C          60.9088   86.9875    8.8924 C.ar    1  UNL1        0.0899
      5 CL         60.8413   86.0260    7.7430 Cl      1  UNL1       -0.0793
      6 C          60.0717   88.2321    8.8791 C.ar    1  UNL1        0.1129
      7 N          60.1392   89.1936   10.0285 N.ar    1  UNL1       -0.2281
      8 N          61.1113   89.8718   12.3405 N.pl3   1  UNL1       -0.2821
      9 H          60.2832   90.2515   12.7139 H       1  UNL1        0.1551
     10 C          65.0986   91.0209   14.0815 C.ar    1  UNL1        0.1683
     11 C          64.1004   90.2781   14.9192 C.ar    1  UNL1        0.1299
     12 N          62.7713   89.8951   14.3389 N.ar    1  UNL1       -0.2251
     13 C          62.4404   90.2549   12.9208 C.ar    1  UNL1        0.1527
     14 C          63.4385   90.9977   12.0831 C.ar    1  UNL1        0.1340
     15 N          64.7676   91.3807   12.6634 N.ar    1  UNL1       -0.2290
     16 N          67.7568   91.7870   15.2421 N.1     1  UNL1       -0.1892
     17 C          66.4277   91.4040   14.6618 C.1     1  UNL1        0.1214
     18 N          62.6504   85.4596   10.0681 N.pl3   1  UNL1       -0.3299
     19 H          63.4082   85.3694    9.4462 H       1  UNL1        0.1469
     20 C          62.3328   84.3523   11.0289 C.3     1  UNL1        0.1185
     21 C          63.0174   84.2970   12.3623 C.3     1  UNL1        0.1503
     22 C          64.3877   83.6977   12.4777 C.3     1  UNL1        0.1003
     23 N          65.0722   83.6424   13.8111 N.3     1  UNL1       -0.2933
     24 C          64.3866   84.1864   15.0294 C.3     1  UNL1        0.1011
     25 C          63.0163   84.7856   14.9141 C.3     1  UNL1        0.1592
     26 O          62.3317   84.8409   13.5805 O.3     1  UNL1       -0.3516
     27 H          65.9490   84.1544   13.7135 H       1  UNL1        0.1234
@<TRIPOS>BOND
     1    16    17    3
     2    17    10    1
     3    10    11   ar
     4    11    12   ar
     5    12    13   ar
     6    13     8    1
     7     8     1    1
     8     1     2   ar
     9     2     3   ar
    10     3    18    1
    11    18    20    1
    12    21    20    1
    13    21    22    1
    14    22    23    1
    15    23    24    1
    16    24    25    1
    17    25    26    1
    18     3     4   ar
    19     4     5    1
    20     4     6   ar
    21     6     7   ar
    22    13    14   ar
    23    14    15   ar
    24    15    10   ar
    25     7     1   ar
    26    26    21    1
    27     8     9    1
    28    18    19    1
    29    23    27    1
@<TRIPOS>MOLECULE
*****
 27 29 0 0 0
SMALL
GASTEIGER

@<TRIPOS>ATOM
      1 C          63.4600   89.8526   14.9298 C.ar    1  UNL1        0.1345
      2 C          63.9069   88.6330   14.1794 C.ar    1  UNL1        0.0496
      3 C          63.9400   87.3000   14.8663 C.ar    1  UNL1        0.0597
      4 C          63.5262   87.1864   16.3036 C.ar    1  UNL1        0.0899
      5 CL         63.5592   85.8533   16.9905 Cl      1  UNL1       -0.0793
      6 C          63.0793   88.4059   17.0541 C.ar    1  UNL1        0.1129
      7 N          63.0462   89.7390   16.3672 N.ar    1  UNL1       -0.2281
      8 N          63.4270   91.1856   14.2429 N.pl3   1  UNL1       -0.2821
      9 H          62.6842   91.8089   14.4134 H       1  UNL1        0.1551
     10 C          66.7229   92.3359   11.4033 C.ar    1  UNL1        0.1683
     11 C          65.3163   92.1944   10.9019 C.ar    1  UNL1        0.1299
     12 N          64.2177   91.8110   11.8484 N.ar    1  UNL1       -0.2251
     13 C          64.5256   91.5690   13.2964 C.ar    1  UNL1        0.1527
     14 C          65.9322   91.7105   13.7978 C.ar    1  UNL1        0.1340
     15 N          67.0309   92.0939   12.8512 N.ar    1  UNL1       -0.2290
     16 N          68.9202   93.1027    9.5101 N.1     1  UNL1       -0.1892
     17 C          67.8216   92.7193   10.4567 C.1     1  UNL1        0.1214
     18 N          64.3868   86.0804   14.1159 N.pl3   1  UNL1       -0.3299
     19 H          65.2958   85.7264   14.2486 H       1  UNL1        0.1469
     20 C          63.4487   85.4003   13.1634 C.3     1  UNL1        0.1185
     21 C          63.1015   83.9540   13.3569 C.3     1  UNL1        0.1503
     22 C          62.6227   83.4700   14.6935 C.3     1  UNL1        0.1003
     23 N          62.2755   82.0236   14.8871 N.3     1  UNL1       -0.2933
     24 C          62.4070   81.0612   13.7440 C.3     1  UNL1        0.1011
     25 C          62.8858   81.5452   12.4074 C.3     1  UNL1        0.1592
     26 O          63.2330   82.9917   12.2139 O.3     1  UNL1       -0.3516
     27 H          61.3013   81.9924   15.1877 H       1  UNL1        0.1234
@<TRIPOS>BOND
     1    16    17    3
     2    17    10    1
     3    10    11   ar
     4    11    12   ar
     5    12    13   ar
     6    13     8    1
     7     8     1    1
     8     1     2   ar
     9     2     3   ar
    10     3    18    1
    11    18    20    1
    12    21    20    1
    13    21    22    1
    14    22    23    1
    15    23    24    1
    16    24    25    1
    17    25    26    1
    18     3     4   ar
    19     4     5    1
    20     4     6   ar
    21     6     7   ar
    22    13    14   ar
    23    14    15   ar
    24    15    10   ar
    25     7     1   ar
    26    26    21    1
    27     8     9    1
    28    18    19    1
    29    23    27    1
@<TRIPOS>MOLECULE
*****
 27 29 0 0 0
SMALL
GASTEIGER

@<TRIPOS>ATOM
      1 C          61.8203   87.2655   10.0548 C.ar    1  UNL1        0.1345
      2 C          62.3763   88.2208   11.0689 C.ar    1  UNL1        0.0496
      3 C          61.5604   89.3966   11.5180 C.ar    1  UNL1        0.0597
      4 C          60.1885   89.6173   10.9529 C.ar    1  UNL1        0.0899
      5 CL         59.3726   90.7932   11.4020 Cl      1  UNL1       -0.0793
      6 C          59.6325   88.6620    9.9388 C.ar    1  UNL1        0.1129
      7 N          60.4484   87.4861    9.4897 N.ar    1  UNL1       -0.2281
      8 N          62.6362   86.0897    9.6058 N.pl3   1  UNL1       -0.2821
      9 H          63.0161   86.0721    8.6977 H       1  UNL1        0.1551
     10 C          63.3479   82.6425   12.4095 C.ar    1  UNL1        0.1683
     11 C          62.5903   83.8484   12.8806 C.ar    1  UNL1        0.1299
     12 N          62.3531   84.9974   11.9460 N.ar    1  UNL1       -0.2251
     13 C          62.8734   84.9406   10.5403 C.ar    1  UNL1        0.1527
     14 C          63.6310   83.7348   10.0692 C.ar    1  UNL1        0.1340
     15 N          63.8683   82.5857   11.0038 N.ar    1  UNL1       -0.2290
     16 N          63.8223   80.3444   14.2786 N.1     1  UNL1       -0.1892
     17 C          63.5851   81.4935   13.3440 C.1     1  UNL1        0.1214
     18 N          62.1163   90.3519   12.5321 N.pl3   1  UNL1       -0.3299
     19 H          61.5113   90.9459   13.0324 H       1  UNL1        0.1469
     20 C          63.5942   90.4023   12.7838 C.3     1  UNL1        0.1185
     21 C          64.3999   91.5671   12.2899 C.3     1  UNL1        0.1503
     22 C          64.3775   91.9316   10.8351 C.3     1  UNL1        0.1003
     23 N          65.1832   93.0964   10.3412 N.3     1  UNL1       -0.2933
     24 C          66.0114   93.8968   11.3022 C.3     1  UNL1        0.1011
     25 C          66.0339   93.5323   12.7570 C.3     1  UNL1        0.1592
     26 O          65.2281   92.3674   13.2509 O.3     1  UNL1       -0.3516
     27 H          64.5269   93.7452    9.9067 H       1  UNL1        0.1234
@<TRIPOS>BOND
     1    16    17    3
     2    17    10    1
     3    10    11   ar
     4    11    12   ar
     5    12    13   ar
     6    13     8    1
     7     8     1    1
     8     1     2   ar
     9     2     3   ar
    10     3    18    1
    11    18    20    1
    12    21    20    1
    13    21    22    1
    14    22    23    1
    15    23    24    1
    16    24    25    1
    17    25    26    1
    18     3     4   ar
    19     4     5    1
    20     4     6   ar
    21     6     7   ar
    22    13    14   ar
    23    14    15   ar
    24    15    10   ar
    25     7     1   ar
    26    26    21    1
    27     8     9    1
    28    18    19    1
    29    23    27    1
@<TRIPOS>MOLECULE
*****
 27 29 0 0 0
SMALL
GASTEIGER

@<TRIPOS>ATOM
      1 C          63.7185   88.8391   14.4183 C.ar    1  UNL1        0.1345
      2 C          64.0726   87.3890   14.5664 C.ar    1  UNL1        0.0496
      3 C          63.8053   86.6801   15.8611 C.ar    1  UNL1        0.0597
      4 C          63.1839   87.4214   17.0076 C.ar    1  UNL1        0.0899
      5 CL         62.9167   86.7125   18.3023 Cl      1  UNL1       -0.0793
      6 C          62.8299   88.8714   16.8595 C.ar    1  UNL1        0.1129
      7 N          63.0972   89.5803   15.5648 N.ar    1  UNL1       -0.2281
      8 N          63.9858   89.5479   13.1237 N.pl3   1  UNL1       -0.2821
      9 H          64.7868   90.1122   13.0277 H       1  UNL1        0.1551
     10 C          61.1265   89.0952    9.6785 C.ar    1  UNL1        0.1683
     11 C          61.4766   90.4618   10.1880 C.ar    1  UNL1        0.1299
     12 N          62.4297   90.6127   11.3363 N.ar    1  UNL1       -0.2251
     13 C          63.0327   89.3970   11.9753 C.ar    1  UNL1        0.1527
     14 C          62.6826   88.0303   11.4658 C.ar    1  UNL1        0.1340
     15 N          61.7295   87.8794   10.3174 N.ar    1  UNL1       -0.2290
     16 N          59.2203   88.7933    7.3817 N.1     1  UNL1       -0.1892
     17 C          60.1734   88.9443    8.5301 C.1     1  UNL1        0.1214
     18 N          64.1593   85.2300   16.0092 N.pl3   1  UNL1       -0.3299
     19 H          65.0740   84.9702   16.2643 H       1  UNL1        0.1469
     20 C          63.1196   84.1758   15.7686 C.3     1  UNL1        0.1185
     21 C          63.1227   83.3983   14.4859 C.3     1  UNL1        0.1503
     22 C          62.8116   84.0874   13.1904 C.3     1  UNL1        0.1003
     23 N          62.8147   83.3099   11.9077 N.3     1  UNL1       -0.2933
     24 C          63.1289   81.8432   11.9204 C.3     1  UNL1        0.1011
     25 C          63.4400   81.1541   13.2159 C.3     1  UNL1        0.1592
     26 O          63.4369   81.9317   14.4987 O.3     1  UNL1       -0.3516
     27 H          63.5009   83.7527   11.2966 H       1  UNL1        0.1234
@<TRIPOS>BOND
     1    16    17    3
     2    17    10    1
     3    10    11   ar
     4    11    12   ar
     5    12    13   ar
     6    13     8    1
     7     8     1    1
     8     1     2   ar
     9     2     3   ar
    10     3    18    1
    11    18    20    1
    12    21    20    1
    13    21    22    1
    14    22    23    1
    15    23    24    1
    16    24    25    1
    17    25    26    1
    18     3     4   ar
    19     4     5    1
    20     4     6   ar
    21     6     7   ar
    22    13    14   ar
    23    14    15   ar
    24    15    10   ar
    25     7     1   ar
    26    26    21    1
    27     8     9    1
    28    18    19    1
    29    23    27    1
