@<TRIPOS>MOLECULE
*****
 42 46 0 0 0
SMALL
GASTEIGER

@<TRIPOS>ATOM
      1 C          61.6819   93.9855    0.8731 C.ar    1  UNL1        0.0741
      2 C          60.2059   94.2529    0.8801 C.ar    1  UNL1        0.0626
      3 CL         59.6090   95.1917   -0.1261 Cl      1  UNL1       -0.0821
      4 C          59.3269   93.5816    1.8933 C.ar    1  UNL1        0.0087
      5 C          59.9239   92.6428    2.8996 C.ar    1  UNL1       -0.0046
      6 C          61.3998   92.3754    2.8925 C.ar    1  UNL1       -0.0120
      7 C          62.2788   93.0468    1.8792 C.ar    1  UNL1        0.0587
      8 CL         63.7548   92.7794    1.8722 Cl      1  UNL1       -0.0824
      9 C          61.9968   91.4367    3.8987 C.3     1  UNL1        0.0484
     10 C          61.1178   90.7654    4.9119 C.3     1  UNL1        0.0987
     11 N          59.6418   91.0328    4.9189 N.am    1  UNL1       -0.2716
     12 C          58.7628   90.3614    5.9322 C.2     1  UNL1        0.2494
     13 O          57.2868   90.6288    5.9393 O.2     1  UNL1       -0.2699
     14 C          59.0449   91.9715    3.9128 C.3     1  UNL1        0.1202
     15 C          59.3598   89.4227    6.9384 C.ar    1  UNL1        0.0566
     16 C          59.1946   87.9411    6.7722 C.ar    1  UNL1        0.0047
     17 C          59.7916   87.0023    7.7784 C.ar    1  UNL1        0.0033
     18 C          60.5537   87.5452    8.9507 C.ar    1  UNL1        0.0377
     19 C          61.2490   86.8700   10.0956 C.ar    1  UNL1        0.0437
     20 C          61.8439   87.9343   10.9694 C.ar    1  UNL1        0.1796
     21 O          61.5163   89.2672   10.3645 O.2     1  UNL1       -0.4504
     22 C          60.7189   89.0268    9.1169 C.ar    1  UNL1        0.1456
     23 C          60.1220   89.9655    8.1108 C.ar    1  UNL1        0.0420
     24 N          63.3112   93.8339   -1.1450 N.am    1  UNL1       -0.2973
     25 C          62.5609   94.6569   -0.1402 C.2     1  UNL1        0.2477
     26 O          62.6895   96.1514   -0.1487 O.2     1  UNL1       -0.2701
     27 H          63.2268   92.8530   -1.1394 H       1  UNL1        0.1500
     28 CA         64.1901   94.5052   -2.1582 C.3     1  UNL1        0.1127
     29 C          65.0616   95.6559   -1.7501 C.2     1  UNL1        0.0685
     30 O          65.8078   95.6073   -0.4498 O.co2   1  UNL1       -0.5475
     31 OXT        65.1868   96.8552   -2.6423 O.co2   1  UNL1       -0.5475
     32 C          64.1977   94.0260   -3.5796 C.3     1  UNL1        0.0517
     33 C          60.4258   94.5547   -4.6945 C.ar    1  UNL1        0.1054
     34 C          60.5810   94.6494   -6.1835 C.ar    1  UNL1        0.0183
     35 C          61.9417   94.5362   -6.8045 C.ar    1  UNL1        0.0010
     36 C          63.1473   94.3284   -5.9364 C.ar    1  UNL1       -0.0041
     37 C          62.9921   94.2338   -4.4475 C.ar    1  UNL1       -0.0189
     38 C          61.6314   94.3469   -3.8266 C.ar    1  UNL1        0.0141
     39 C          57.7043   94.7809   -3.4526 C.3     1  UNL1        0.1816
     40 S          59.0651   94.6678   -4.0736 S.O2    1  UNL1        0.0104
     41 O          58.7505   95.8256   -4.9739 O.2     1  UNL1       -0.1686
     42 O          59.3797   93.5100   -3.1733 O.2     1  UNL1       -0.1686
@<TRIPOS>UNITY_ATOM_ATTR
30 1
charge -1
@<TRIPOS>BOND
     1    39    40    1
     2    40    41    2
     3    40    42    2
     4    40    33    1
     5    33    34   ar
     6    34    35   ar
     7    35    36   ar
     8    36    37   ar
     9    37    32    1
    10    28    32    1
    11    28    24    1
    12    24    25   am
    13    25    26    2
    14    25     1    1
    15     1     2   ar
    16     2     3    1
    17     2     4   ar
    18     4     5   ar
    19     5     6   ar
    20     6     7   ar
    21     7     8    1
    22     6     9    1
    23     9    10    1
    24    10    11    1
    25    11    12   am
    26    12    13    2
    27    12    15    1
    28    15    16   ar
    29    16    17   ar
    30    17    18   ar
    31    18    19   ar
    32    19    20   ar
    33    20    21   ar
    34    21    22   ar
    35    22    23   ar
    36    11    14    1
    37    28    29    1
    38    29    30   ar
    39    29    31   ar
    40    37    38   ar
    41    38    33   ar
    42     7     1   ar
    43    23    15   ar
    44    14     5    1
    45    22    18   ar
    46    24    27    1
@<TRIPOS>MOLECULE
*****
 42 46 0 0 0
SMALL
GASTEIGER

@<TRIPOS>ATOM
      1 C          59.4986   90.6536    5.3565 C.ar    1  UNL1        0.0741
      2 C          58.1826   91.2096    4.8995 C.ar    1  UNL1        0.0626
      3 CL         56.9143   90.7939    5.5843 Cl      1  UNL1       -0.0821
      4 C          58.1347   92.1812    3.7578 C.ar    1  UNL1        0.0087
      5 C          59.4029   92.5969    3.0730 C.ar    1  UNL1       -0.0046
      6 C          60.7190   92.0409    3.5300 C.ar    1  UNL1       -0.0120
      7 C          60.7668   91.0692    4.6718 C.ar    1  UNL1        0.0587
      8 CL         62.0829   90.5132    5.1288 Cl      1  UNL1       -0.0824
      9 C          61.9872   92.4565    2.8453 C.3     1  UNL1        0.0484
     10 C          61.9393   93.4281    1.7036 C.3     1  UNL1        0.0987
     11 N          60.6233   93.9841    1.2466 N.am    1  UNL1       -0.2716
     12 C          60.5755   94.9558    0.1048 C.2     1  UNL1        0.2494
     13 O          59.2594   95.5118   -0.3522 O.2     1  UNL1       -0.2699
     14 C          59.3551   93.5685    1.9313 C.3     1  UNL1        0.1202
     15 C          61.8437   95.3715   -0.5800 C.ar    1  UNL1        0.0566
     16 C          62.8529   96.2052    0.1524 C.ar    1  UNL1        0.0047
     17 C          64.1211   96.6208   -0.5324 C.ar    1  UNL1        0.0033
     18 C          64.3801   96.2027   -1.9495 C.ar    1  UNL1        0.0377
     19 C          65.5305   96.4590   -2.8773 C.ar    1  UNL1        0.0437
     20 C          65.2323   95.7836   -4.1831 C.ar    1  UNL1        0.1796
     21 O          63.8976   95.1100   -4.0622 O.2     1  UNL1       -0.4504
     22 C          63.3708   95.3690   -2.6818 C.ar    1  UNL1        0.1456
     23 C          62.1027   94.9533   -1.9971 C.ar    1  UNL1        0.0420
     24 N          60.1205   90.1035    7.8184 N.am    1  UNL1       -0.2973
     25 C          59.5464   89.6819    6.4983 C.2     1  UNL1        0.2477
     26 O          59.0202   88.2886    6.3199 O.2     1  UNL1       -0.2701
     27 H          60.4658   91.0179    7.9355 H       1  UNL1        0.1500
     28 CA         60.1682   89.1318    8.9601 C.3     1  UNL1        0.1127
     29 C          60.4693   89.6181   10.3468 C.2     1  UNL1        0.0685
     30 O          61.6293   90.5393   10.5831 O.co2   1  UNL1       -0.5475
     31 OXT        59.6104   89.1832   11.4971 O.co2   1  UNL1       -0.5475
     32 C          59.9149   87.6737    8.7152 C.3     1  UNL1        0.0517
     33 C          62.4025   85.2971   10.6934 C.ar    1  UNL1        0.1054
     34 C          63.1450   84.6561    9.5584 C.ar    1  UNL1        0.0183
     35 C          62.8107   85.0211    8.1424 C.ar    1  UNL1        0.0010
     36 C          61.7339   86.0270    7.8613 C.ar    1  UNL1       -0.0041
     37 C          60.9916   86.6679    8.9963 C.ar    1  UNL1       -0.0189
     38 C          61.3259   86.3030   10.4123 C.ar    1  UNL1        0.0141
     39 C          63.0711   84.5673   13.5254 C.3     1  UNL1        0.1816
     40 S          62.7368   84.9322   12.1094 S.O2    1  UNL1        0.0104
     41 O          62.7335   86.3846   12.4844 O.2     1  UNL1       -0.1686
     42 O          62.7402   83.4799   11.7343 O.2     1  UNL1       -0.1686
@<TRIPOS>UNITY_ATOM_ATTR
30 1
charge -1
@<TRIPOS>BOND
     1    39    40    1
     2    40    41    2
     3    40    42    2
     4    40    33    1
     5    33    34   ar
     6    34    35   ar
     7    35    36   ar
     8    36    37   ar
     9    37    32    1
    10    28    32    1
    11    28    24    1
    12    24    25   am
    13    25    26    2
    14    25     1    1
    15     1     2   ar
    16     2     3    1
    17     2     4   ar
    18     4     5   ar
    19     5     6   ar
    20     6     7   ar
    21     7     8    1
    22     6     9    1
    23     9    10    1
    24    10    11    1
    25    11    12   am
    26    12    13    2
    27    12    15    1
    28    15    16   ar
    29    16    17   ar
    30    17    18   ar
    31    18    19   ar
    32    19    20   ar
    33    20    21   ar
    34    21    22   ar
    35    22    23   ar
    36    11    14    1
    37    28    29    1
    38    29    30   ar
    39    29    31   ar
    40    37    38   ar
    41    38    33   ar
    42     7     1   ar
    43    23    15   ar
    44    14     5    1
    45    22    18   ar
    46    24    27    1
@<TRIPOS>MOLECULE
*****
 42 46 0 0 0
SMALL
GASTEIGER

@<TRIPOS>ATOM
      1 C          61.2185   93.9782    0.5696 C.ar    1  UNL1        0.0741
      2 C          59.7244   94.1075    0.5988 C.ar    1  UNL1        0.0626
      3 CL         59.0213   94.9206   -0.4475 Cl      1  UNL1       -0.0821
      4 C          58.9333   93.4237    1.6743 C.ar    1  UNL1        0.0087
      5 C          59.6363   92.6107    2.7206 C.ar    1  UNL1       -0.0046
      6 C          61.1305   92.4814    2.6914 C.ar    1  UNL1       -0.0120
      7 C          61.9216   93.1652    1.6158 C.ar    1  UNL1        0.0587
      8 CL         63.4157   93.0359    1.5866 Cl      1  UNL1       -0.0824
      9 C          61.8335   91.6684    3.7376 C.3     1  UNL1        0.0484
     10 C          61.0425   90.9846    4.8131 C.3     1  UNL1        0.0987
     11 N          59.5483   91.1139    4.8423 N.am    1  UNL1       -0.2716
     12 C          58.7573   90.4301    5.9178 C.2     1  UNL1        0.2494
     13 O          57.2631   90.5594    5.9470 O.2     1  UNL1       -0.2699
     14 C          58.8453   91.9269    3.7960 C.3     1  UNL1        0.1202
     15 C          59.4603   89.6171    6.9640 C.ar    1  UNL1        0.0566
     16 C          60.1304   90.2997    8.1195 C.ar    1  UNL1        0.0047
     17 C          60.8335   89.4866    9.1658 C.ar    1  UNL1        0.0033
     18 C          60.8665   87.9910    9.0566 C.ar    1  UNL1        0.0377
     19 C          61.4777   86.9342    9.9281 C.ar    1  UNL1        0.0437
     20 C          61.1854   85.5985    9.3114 C.ar    1  UNL1        0.1796
     21 O          60.3935   85.8297    8.0586 O.2     1  UNL1       -0.4504
     22 C          60.1964   87.3084    7.9011 C.ar    1  UNL1        0.1456
     23 C          59.4933   88.1214    6.8549 C.ar    1  UNL1        0.0420
     24 N          62.0192   94.1054   -1.8988 N.am    1  UNL1       -0.2973
     25 C          62.0096   94.6620   -0.5059 C.2     1  UNL1        0.2477
     26 O          62.7910   95.9024   -0.1885 O.2     1  UNL1       -0.2701
     27 H          61.5064   93.2913   -2.1071 H       1  UNL1        0.1500
     28 CA         62.8103   94.7892   -2.9742 C.3     1  UNL1        0.1127
     29 C          64.2904   94.5666   -3.0731 C.2     1  UNL1        0.0685
     30 O          65.2344   95.4536   -2.3169 O.co2   1  UNL1       -0.5475
     31 OXT        64.8264   93.4568   -3.9283 O.co2   1  UNL1       -0.5475
     32 C          62.1212   95.6957   -3.9508 C.3     1  UNL1        0.0517
     33 C          58.6750   93.9847   -4.9232 C.ar    1  UNL1        0.1054
     34 C          58.6851   94.1539   -6.4137 C.ar    1  UNL1        0.0183
     35 C          59.8406   94.8370   -7.0831 C.ar    1  UNL1        0.0010
     36 C          60.9860   95.3510   -6.2621 C.ar    1  UNL1       -0.0041
     37 C          60.9759   95.1817   -4.7717 C.ar    1  UNL1       -0.0189
     38 C          59.8204   94.4986   -4.1023 C.ar    1  UNL1        0.0141
     39 C          56.3640   92.6184   -3.5844 C.3     1  UNL1        0.1816
     40 S          57.5195   93.3016   -4.2538 S.O2    1  UNL1        0.0104
     41 O          58.4602   92.6795   -3.2648 O.2     1  UNL1       -0.1686
     42 O          56.5788   93.9236   -5.2427 O.2     1  UNL1       -0.1686
@<TRIPOS>UNITY_ATOM_ATTR
30 1
charge -1
@<TRIPOS>BOND
     1    39    40    1
     2    40    41    2
     3    40    42    2
     4    40    33    1
     5    33    34   ar
     6    34    35   ar
     7    35    36   ar
     8    36    37   ar
     9    37    32    1
    10    28    32    1
    11    28    24    1
    12    24    25   am
    13    25    26    2
    14    25     1    1
    15     1     2   ar
    16     2     3    1
    17     2     4   ar
    18     4     5   ar
    19     5     6   ar
    20     6     7   ar
    21     7     8    1
    22     6     9    1
    23     9    10    1
    24    10    11    1
    25    11    12   am
    26    12    13    2
    27    12    15    1
    28    15    16   ar
    29    16    17   ar
    30    17    18   ar
    31    18    19   ar
    32    19    20   ar
    33    20    21   ar
    34    21    22   ar
    35    22    23   ar
    36    11    14    1
    37    28    29    1
    38    29    30   ar
    39    29    31   ar
    40    37    38   ar
    41    38    33   ar
    42     7     1   ar
    43    23    15   ar
    44    14     5    1
    45    22    18   ar
    46    24    27    1
@<TRIPOS>MOLECULE
*****
 42 46 0 0 0
SMALL
GASTEIGER

@<TRIPOS>ATOM
      1 C          63.9332   89.1694   15.1767 C.ar    1  UNL1        0.0741
      2 C          63.4841   88.5523   16.4680 C.ar    1  UNL1        0.0626
      3 CL         63.3933   89.3910   17.7084 Cl      1  UNL1       -0.0821
      4 C          63.1257   87.0967   16.5190 C.ar    1  UNL1        0.0087
      5 C          63.2164   86.2580   15.2786 C.ar    1  UNL1       -0.0046
      6 C          63.6656   86.8751   13.9873 C.ar    1  UNL1       -0.0120
      7 C          64.0240   88.3308   13.9363 C.ar    1  UNL1        0.0587
      8 CL         64.4731   88.9478   12.6450 Cl      1  UNL1       -0.0824
      9 C          63.7563   86.0365   12.7469 C.3     1  UNL1        0.0484
     10 C          63.3979   84.5809   12.7979 C.3     1  UNL1        0.0987
     11 N          62.9488   83.9638   14.0893 N.am    1  UNL1       -0.2716
     12 C          62.5904   82.5081   14.1402 C.2     1  UNL1        0.2494
     13 O          62.1413   81.8910   15.4315 O.2     1  UNL1       -0.2699
     14 C          62.8580   84.8024   15.3296 C.3     1  UNL1        0.1202
     15 C          62.6811   81.6695   12.8999 C.ar    1  UNL1        0.0566
     16 C          62.8411   82.3260   11.5607 C.ar    1  UNL1        0.0047
     17 C          62.9318   81.4874   10.3203 C.ar    1  UNL1        0.0033
     18 C          62.8626   79.9923   10.4191 C.ar    1  UNL1        0.0377
     19 C          62.9239   78.9137    9.3785 C.ar    1  UNL1        0.0437
     20 C          62.8018   77.5905   10.0745 C.ar    1  UNL1        0.1796
     21 O          62.6651   77.8514   11.5453 O.2     1  UNL1       -0.4504
     22 C          62.7027   79.3357   11.7583 C.ar    1  UNL1        0.1456
     23 C          62.6119   80.1743   12.9986 C.ar    1  UNL1        0.0420
     24 N          65.5494   91.0641   14.4365 N.am    1  UNL1       -0.2973
     25 C          64.2916   90.6251   15.1257 C.2     1  UNL1        0.2477
     26 O          63.3921   91.6417   15.7641 O.2     1  UNL1       -0.2701
     27 H          66.1398   90.3969   14.0175 H       1  UNL1        0.1500
     28 CA         65.9077   92.5198   14.3856 C.3     1  UNL1        0.1127
     29 C          66.6510   93.1496   15.5262 C.2     1  UNL1        0.0685
     30 O          67.7754   94.1040   15.2528 O.co2   1  UNL1       -0.5475
     31 OXT        66.2698   92.8249   16.9402 O.co2   1  UNL1       -0.5475
     32 C          65.5228   93.3457   13.1940 C.3     1  UNL1        0.0517
     33 C          67.2344   94.5004    9.8048 C.ar    1  UNL1        0.1054
     34 C          68.1009   93.3130    9.5059 C.ar    1  UNL1        0.0183
     35 C          68.1081   92.1365   10.4365 C.ar    1  UNL1        0.0010
     36 C          67.2486   92.1475   11.6659 C.ar    1  UNL1       -0.0041
     37 C          66.3822   93.3348   11.9647 C.ar    1  UNL1       -0.0189
     38 C          66.3750   94.5113   11.0341 C.ar    1  UNL1        0.0141
     39 C          67.2201   96.8533    7.9437 C.3     1  UNL1        0.1816
     40 S          67.2273   95.6768    8.8743 S.O2    1  UNL1        0.0104
     41 O          67.3451   94.7496    7.7011 O.2     1  UNL1       -0.1686
     42 O          67.1095   96.6041   10.0474 O.2     1  UNL1       -0.1686
@<TRIPOS>UNITY_ATOM_ATTR
30 1
charge -1
@<TRIPOS>BOND
     1    39    40    1
     2    40    41    2
     3    40    42    2
     4    40    33    1
     5    33    34   ar
     6    34    35   ar
     7    35    36   ar
     8    36    37   ar
     9    37    32    1
    10    28    32    1
    11    28    24    1
    12    24    25   am
    13    25    26    2
    14    25     1    1
    15     1     2   ar
    16     2     3    1
    17     2     4   ar
    18     4     5   ar
    19     5     6   ar
    20     6     7   ar
    21     7     8    1
    22     6     9    1
    23     9    10    1
    24    10    11    1
    25    11    12   am
    26    12    13    2
    27    12    15    1
    28    15    16   ar
    29    16    17   ar
    30    17    18   ar
    31    18    19   ar
    32    19    20   ar
    33    20    21   ar
    34    21    22   ar
    35    22    23   ar
    36    11    14    1
    37    28    29    1
    38    29    30   ar
    39    29    31   ar
    40    37    38   ar
    41    38    33   ar
    42     7     1   ar
    43    23    15   ar
    44    14     5    1
    45    22    18   ar
    46    24    27    1
@<TRIPOS>MOLECULE
*****
 42 46 0 0 0
SMALL
GASTEIGER

@<TRIPOS>ATOM
      1 C          60.3106   91.3995    4.5125 C.ar    1  UNL1        0.0741
      2 C          58.9812   91.9870    4.1414 C.ar    1  UNL1        0.0626
      3 CL         57.8080   91.8293    5.0628 Cl      1  UNL1       -0.0821
      4 C          58.8251   92.7322    2.8490 C.ar    1  UNL1        0.0087
      5 C          59.9983   92.8899    1.9277 C.ar    1  UNL1       -0.0046
      6 C          61.3276   92.3024    2.2988 C.ar    1  UNL1       -0.0120
      7 C          61.4837   91.5572    3.5912 C.ar    1  UNL1        0.0587
      8 CL         62.8130   90.9697    3.9623 Cl      1  UNL1       -0.0824
      9 C          62.5007   92.4601    1.3775 C.3     1  UNL1        0.0484
     10 C          62.3446   93.2053    0.0851 C.3     1  UNL1        0.0987
     11 N          61.0152   93.7928   -0.2860 N.am    1  UNL1       -0.2716
     12 C          60.8591   94.5380   -1.5784 C.2     1  UNL1        0.2494
     13 O          59.5298   95.1255   -1.9495 O.2     1  UNL1       -0.2699
     14 C          59.8421   93.6351    0.6353 C.3     1  UNL1        0.1202
     15 C          62.0323   94.6957   -2.4997 C.ar    1  UNL1        0.0566
     16 C          62.9246   95.8954   -2.3792 C.ar    1  UNL1        0.0047
     17 C          64.0978   96.0530   -3.3006 C.ar    1  UNL1        0.0033
     18 C          64.3786   95.0110   -4.3423 C.ar    1  UNL1        0.0377
     19 C          65.4528   94.8961   -5.3830 C.ar    1  UNL1        0.0437
     20 C          65.2244   93.6254   -6.1466 C.ar    1  UNL1        0.1796
     21 O          64.0091   92.9549   -5.5779 O.2     1  UNL1       -0.4504
     22 C          63.4863   93.8113   -4.4627 C.ar    1  UNL1        0.1456
     23 C          62.3132   93.6536   -3.5415 C.ar    1  UNL1        0.0420
     24 N          59.4151   89.6766    6.2387 N.am    1  UNL1       -0.2973
     25 C          60.4667   90.6543    5.8050 C.2     1  UNL1        0.2477
     26 O          61.6744   90.8869    6.6636 O.2     1  UNL1       -0.2701
     27 H          58.6224   89.5240    5.6752 H       1  UNL1        0.1500
     28 CA         59.5713   88.9315    7.5311 C.3     1  UNL1        0.1127
     29 C          59.5666   87.4315    7.5373 C.2     1  UNL1        0.0685
     30 O          58.2919   86.6866    7.8024 O.co2   1  UNL1       -0.5475
     31 OXT        60.8366   86.6765    7.2784 O.co2   1  UNL1       -0.5475
     32 C          59.7321   89.6863    8.8174 C.3     1  UNL1        0.0517
     33 C          62.0726   87.4869   11.1485 C.ar    1  UNL1        0.1054
     34 C          62.9842   88.5386   11.7082 C.ar    1  UNL1        0.0183
     35 C          62.8116   89.9728   11.3043 C.ar    1  UNL1        0.0010
     36 C          61.7276   90.3554   10.3406 C.ar    1  UNL1       -0.0041
     37 C          60.8161   89.3037    9.7810 C.ar    1  UNL1       -0.0189
     38 C          60.9886   87.8695   10.1850 C.ar    1  UNL1        0.0141
     39 C          62.4177   84.6184   11.9565 C.3     1  UNL1        0.1816
     40 S          62.2452   86.0527   11.5525 S.O2    1  UNL1        0.0104
     41 O          61.3695   85.6261   10.4118 O.2     1  UNL1       -0.1686
     42 O          63.1208   86.4793   12.6932 O.2     1  UNL1       -0.1686
@<TRIPOS>UNITY_ATOM_ATTR
30 1
charge -1
@<TRIPOS>BOND
     1    39    40    1
     2    40    41    2
     3    40    42    2
     4    40    33    1
     5    33    34   ar
     6    34    35   ar
     7    35    36   ar
     8    36    37   ar
     9    37    32    1
    10    28    32    1
    11    28    24    1
    12    24    25   am
    13    25    26    2
    14    25     1    1
    15     1     2   ar
    16     2     3    1
    17     2     4   ar
    18     4     5   ar
    19     5     6   ar
    20     6     7   ar
    21     7     8    1
    22     6     9    1
    23     9    10    1
    24    10    11    1
    25    11    12   am
    26    12    13    2
    27    12    15    1
    28    15    16   ar
    29    16    17   ar
    30    17    18   ar
    31    18    19   ar
    32    19    20   ar
    33    20    21   ar
    34    21    22   ar
    35    22    23   ar
    36    11    14    1
    37    28    29    1
    38    29    30   ar
    39    29    31   ar
    40    37    38   ar
    41    38    33   ar
    42     7     1   ar
    43    23    15   ar
    44    14     5    1
    45    22    18   ar
    46    24    27    1
@<TRIPOS>MOLECULE
*****
 42 46 0 0 0
SMALL
GASTEIGER

@<TRIPOS>ATOM
      1 C          59.4953   90.5983    5.5657 C.ar    1  UNL1        0.0741
      2 C          58.1478   91.0692    5.1045 C.ar    1  UNL1        0.0626
      3 CL         56.9122   90.6441    5.8412 Cl      1  UNL1       -0.0821
      4 C          58.0360   91.9652    3.9067 C.ar    1  UNL1        0.0087
      5 C          59.2716   92.3903    3.1701 C.ar    1  UNL1       -0.0046
      6 C          60.6190   91.9194    3.6312 C.ar    1  UNL1       -0.0120
      7 C          60.7309   91.0234    4.8291 C.ar    1  UNL1        0.0587
      8 CL         62.0783   90.5525    5.2902 Cl      1  UNL1       -0.0824
      9 C          61.8546   92.3445    2.8946 C.3     1  UNL1        0.0484
     10 C          61.7427   93.2404    1.6969 C.3     1  UNL1        0.0987
     11 N          60.3953   93.7113    1.2357 N.am    1  UNL1       -0.2716
     12 C          60.2835   94.6073    0.0379 C.2     1  UNL1        0.2494
     13 O          58.9360   95.0782   -0.4233 O.2     1  UNL1       -0.2699
     14 C          59.1597   93.2862    1.9723 C.3     1  UNL1        0.1202
     15 C          61.5190   95.0324   -0.6987 C.ar    1  UNL1        0.0566
     16 C          62.3763   96.1351   -0.1517 C.ar    1  UNL1        0.0047
     17 C          63.6119   96.5601   -0.8884 C.ar    1  UNL1        0.0033
     18 C          63.9902   95.8825   -2.1720 C.ar    1  UNL1        0.0377
     19 C          65.1413   96.0846   -3.1123 C.ar    1  UNL1        0.0437
     20 C          64.9955   95.1069   -4.2405 C.ar    1  UNL1        0.1796
     21 O          63.7542   94.3005   -3.9974 O.2     1  UNL1       -0.4504
     22 C          63.1329   94.7799   -2.7190 C.ar    1  UNL1        0.1456
     23 C          61.8974   94.3548   -1.9824 C.ar    1  UNL1        0.0420
     24 N          60.3013   90.1880    8.0012 N.am    1  UNL1       -0.2973
     25 C          59.6071   89.7023    6.7635 C.2     1  UNL1        0.2477
     26 O          59.0247   88.3205    6.7235 O.2     1  UNL1       -0.2701
     27 H          60.6836   91.0949    8.0275 H       1  UNL1        0.1500
     28 CA         60.4131   89.2920    9.1990 C.3     1  UNL1        0.1127
     29 C          59.6261   89.5961   10.4392 C.2     1  UNL1        0.0685
     30 O          59.3478   91.0198   10.8206 O.co2   1  UNL1       -0.5475
     31 OXT        59.1173   88.4764   11.2980 O.co2   1  UNL1       -0.5475
     32 C          61.3120   88.0919    9.1566 C.3     1  UNL1        0.0517
     33 C          62.7256   85.7023   11.9923 C.ar    1  UNL1        0.1054
     34 C          63.3831   86.6985   12.9008 C.ar    1  UNL1        0.0183
     35 C          63.3503   88.1592   12.5611 C.ar    1  UNL1        0.0010
     36 C          62.6599   88.6236   11.3130 C.ar    1  UNL1       -0.0041
     37 C          62.0024   87.6274   10.4046 C.ar    1  UNL1       -0.0189
     38 C          62.0352   86.1667   10.7443 C.ar    1  UNL1        0.0141
     39 C          62.7912   82.7809   12.6716 C.3     1  UNL1        0.1816
     40 S          62.7584   84.2416   12.3319 S.O2    1  UNL1        0.0104
     41 O          63.0199   83.9126   10.8920 O.2     1  UNL1       -0.1686
     42 O          62.4969   84.5706   13.7719 O.2     1  UNL1       -0.1686
@<TRIPOS>UNITY_ATOM_ATTR
30 1
charge -1
@<TRIPOS>BOND
     1    39    40    1
     2    40    41    2
     3    40    42    2
     4    40    33    1
     5    33    34   ar
     6    34    35   ar
     7    35    36   ar
     8    36    37   ar
     9    37    32    1
    10    28    32    1
    11    28    24    1
    12    24    25   am
    13    25    26    2
    14    25     1    1
    15     1     2   ar
    16     2     3    1
    17     2     4   ar
    18     4     5   ar
    19     5     6   ar
    20     6     7   ar
    21     7     8    1
    22     6     9    1
    23     9    10    1
    24    10    11    1
    25    11    12   am
    26    12    13    2
    27    12    15    1
    28    15    16   ar
    29    16    17   ar
    30    17    18   ar
    31    18    19   ar
    32    19    20   ar
    33    20    21   ar
    34    21    22   ar
    35    22    23   ar
    36    11    14    1
    37    28    29    1
    38    29    30   ar
    39    29    31   ar
    40    37    38   ar
    41    38    33   ar
    42     7     1   ar
    43    23    15   ar
    44    14     5    1
    45    22    18   ar
    46    24    27    1
@<TRIPOS>MOLECULE
*****
 42 46 0 0 0
SMALL
GASTEIGER

@<TRIPOS>ATOM
      1 C          59.5119   90.5674    5.5399 C.ar    1  UNL1        0.0741
      2 C          58.1707   91.0630    5.0865 C.ar    1  UNL1        0.0626
      3 CL         56.9289   90.6353    5.8112 Cl      1  UNL1       -0.0821
      4 C          58.0713   91.9862    3.9085 C.ar    1  UNL1        0.0087
      5 C          59.3131   92.4139    3.1838 C.ar    1  UNL1       -0.0046
      6 C          60.6543   91.9183    3.6372 C.ar    1  UNL1       -0.0120
      7 C          60.7537   90.9950    4.8152 C.ar    1  UNL1        0.0587
      8 CL         62.0949   90.4994    5.2686 Cl      1  UNL1       -0.0824
      9 C          61.8960   92.3459    2.9125 C.3     1  UNL1        0.0484
     10 C          61.7966   93.2692    1.7346 C.3     1  UNL1        0.0987
     11 N          60.4554   93.7648    1.2812 N.am    1  UNL1       -0.2716
     12 C          60.3560   94.6880    0.1031 C.2     1  UNL1        0.2494
     13 O          59.0148   95.1836   -0.3502 O.2     1  UNL1       -0.2699
     14 C          59.2136   93.3371    2.0058 C.3     1  UNL1        0.1202
     15 C          61.5977   95.1157   -0.6215 C.ar    1  UNL1        0.0566
     16 C          62.5651   96.0538    0.0374 C.ar    1  UNL1        0.0047
     17 C          63.8069   96.4814   -0.6873 C.ar    1  UNL1        0.0033
     18 C          64.0813   95.9709   -2.0708 C.ar    1  UNL1        0.0377
     19 C          65.2128   96.2153   -3.0248 C.ar    1  UNL1        0.0437
     20 C          64.9447   95.4283   -4.2733 C.ar    1  UNL1        0.1796
     21 O          63.6475   94.6975   -4.0909 O.2     1  UNL1       -0.4504
     22 C          63.1139   95.0328   -2.7297 C.ar    1  UNL1        0.1456
     23 C          61.8721   94.6052   -2.0051 C.ar    1  UNL1        0.0420
     24 N          60.2663   90.1114    7.9838 N.am    1  UNL1       -0.2973
     25 C          59.6113   89.6441    6.7179 C.2     1  UNL1        0.2477
     26 O          59.0557   88.2536    6.6300 O.2     1  UNL1       -0.2701
     27 H          60.6310   91.0240    8.0416 H       1  UNL1        0.1500
     28 CA         60.3657   89.1881    9.1618 C.3     1  UNL1        0.1127
     29 C          59.7145   89.5578   10.4615 C.2     1  UNL1        0.0685
     30 O          59.2079   88.4844   11.3786 O.co2   1  UNL1       -0.5475
     31 OXT        59.5701   91.0010   10.8442 O.co2   1  UNL1       -0.5475
     32 C          61.1163   87.8951    9.0401 C.3     1  UNL1        0.0517
     33 C          63.1459   87.6262   12.4398 C.ar    1  UNL1        0.1054
     34 C          63.1721   86.1395   12.6375 C.ar    1  UNL1        0.0183
     35 C          62.5130   85.2380   11.6360 C.ar    1  UNL1        0.0010
     36 C          61.8277   85.8232   10.4369 C.ar    1  UNL1       -0.0041
     37 C          61.8015   87.3099   10.2392 C.ar    1  UNL1       -0.0189
     38 C          62.4606   88.2114   11.2407 C.ar    1  UNL1        0.0141
     39 C          64.4640   89.4292   14.4427 C.3     1  UNL1        0.1816
     40 S          63.8049   88.5277   13.4413 S.O2    1  UNL1        0.0104
     41 O          63.9930   87.3622   14.3666 O.2     1  UNL1       -0.1686
     42 O          63.6169   89.6932   12.5159 O.2     1  UNL1       -0.1686
@<TRIPOS>UNITY_ATOM_ATTR
30 1
charge -1
@<TRIPOS>BOND
     1    39    40    1
     2    40    41    2
     3    40    42    2
     4    40    33    1
     5    33    34   ar
     6    34    35   ar
     7    35    36   ar
     8    36    37   ar
     9    37    32    1
    10    28    32    1
    11    28    24    1
    12    24    25   am
    13    25    26    2
    14    25     1    1
    15     1     2   ar
    16     2     3    1
    17     2     4   ar
    18     4     5   ar
    19     5     6   ar
    20     6     7   ar
    21     7     8    1
    22     6     9    1
    23     9    10    1
    24    10    11    1
    25    11    12   am
    26    12    13    2
    27    12    15    1
    28    15    16   ar
    29    16    17   ar
    30    17    18   ar
    31    18    19   ar
    32    19    20   ar
    33    20    21   ar
    34    21    22   ar
    35    22    23   ar
    36    11    14    1
    37    28    29    1
    38    29    30   ar
    39    29    31   ar
    40    37    38   ar
    41    38    33   ar
    42     7     1   ar
    43    23    15   ar
    44    14     5    1
    45    22    18   ar
    46    24    27    1
@<TRIPOS>MOLECULE
*****
 42 46 0 0 0
SMALL
GASTEIGER

@<TRIPOS>ATOM
      1 C          60.2334   91.3636    4.5171 C.ar    1  UNL1        0.0741
      2 C          58.8977   91.9287    4.1342 C.ar    1  UNL1        0.0626
      3 CL         57.7168   91.7424    5.0403 Cl      1  UNL1       -0.0821
      4 C          58.7428   92.6802    2.8453 C.ar    1  UNL1        0.0087
      5 C          59.9236   92.8665    1.9392 C.ar    1  UNL1       -0.0046
      6 C          61.2593   92.3014    2.3220 C.ar    1  UNL1       -0.0120
      7 C          61.4141   91.5499    3.6110 C.ar    1  UNL1        0.0587
      8 CL         62.7498   90.9848    3.9939 Cl      1  UNL1       -0.0824
      9 C          62.4401   92.4877    1.4160 C.3     1  UNL1        0.0484
     10 C          62.2852   93.2392    0.1271 C.3     1  UNL1        0.0987
     11 N          60.9495   93.8043   -0.2557 N.am    1  UNL1       -0.2716
     12 C          60.7946   94.5558   -1.5447 C.2     1  UNL1        0.2494
     13 O          59.4589   95.1209   -1.9276 O.2     1  UNL1       -0.2699
     14 C          59.7687   93.6180    0.6503 C.3     1  UNL1        0.1202
     15 C          61.9754   94.7421   -2.4508 C.ar    1  UNL1        0.0566
     16 C          62.8588   95.9442   -2.2939 C.ar    1  UNL1        0.0047
     17 C          64.0397   96.1305   -3.2000 C.ar    1  UNL1        0.0033
     18 C          64.3370   95.1147   -4.2629 C.ar    1  UNL1        0.0377
     19 C          65.4217   95.0307   -5.2956 C.ar    1  UNL1        0.0437
     20 C          65.2086   93.7768   -6.0908 C.ar    1  UNL1        0.1796
     21 O          63.9923   93.0858   -5.5495 O.2     1  UNL1       -0.4504
     22 C          63.4536   93.9127   -4.4198 C.ar    1  UNL1        0.1456
     23 C          62.2728   93.7263   -3.5138 C.ar    1  UNL1        0.0420
     24 N          59.3727   89.5807    6.1995 N.am    1  UNL1       -0.2973
     25 C          60.3882   90.6121    5.8060 C.2     1  UNL1        0.2477
     26 O          61.5586   90.8922    6.7015 O.2     1  UNL1       -0.2701
     27 H          58.6046   89.3969    5.6118 H       1  UNL1        0.1500
     28 CA         59.5276   88.8293    7.4884 C.3     1  UNL1        0.1127
     29 C          59.4966   87.3296    7.4907 C.2     1  UNL1        0.0685
     30 O          58.2204   86.6063    7.8038 O.co2   1  UNL1       -0.5475
     31 OXT        60.7420   86.5532    7.1799 O.co2   1  UNL1       -0.5475
     32 C          59.7135   89.5775    8.7752 C.3     1  UNL1        0.0517
     33 C          62.7307   89.7411   11.3480 C.ar    1  UNL1        0.1054
     34 C          62.8922   88.2891   11.6882 C.ar    1  UNL1        0.0183
     35 C          61.9941   87.2666   11.0573 C.ar    1  UNL1        0.0010
     36 C          60.9345   87.6961   10.0863 C.ar    1  UNL1       -0.0041
     37 C          60.7731   89.1481    9.7461 C.ar    1  UNL1       -0.0189
     38 C          61.6712   90.1705   10.3770 C.ar    1  UNL1        0.0141
     39 C          64.5269   91.7860   12.6097 C.3     1  UNL1        0.1816
     40 S          63.6288   90.7635   11.9788 S.O2    1  UNL1        0.0104
     41 O          63.4205   90.1203   13.3178 O.2     1  UNL1       -0.1686
     42 O          63.8371   91.4067   10.6398 O.2     1  UNL1       -0.1686
@<TRIPOS>UNITY_ATOM_ATTR
30 1
charge -1
@<TRIPOS>BOND
     1    39    40    1
     2    40    41    2
     3    40    42    2
     4    40    33    1
     5    33    34   ar
     6    34    35   ar
     7    35    36   ar
     8    36    37   ar
     9    37    32    1
    10    28    32    1
    11    28    24    1
    12    24    25   am
    13    25    26    2
    14    25     1    1
    15     1     2   ar
    16     2     3    1
    17     2     4   ar
    18     4     5   ar
    19     5     6   ar
    20     6     7   ar
    21     7     8    1
    22     6     9    1
    23     9    10    1
    24    10    11    1
    25    11    12   am
    26    12    13    2
    27    12    15    1
    28    15    16   ar
    29    16    17   ar
    30    17    18   ar
    31    18    19   ar
    32    19    20   ar
    33    20    21   ar
    34    21    22   ar
    35    22    23   ar
    36    11    14    1
    37    28    29    1
    38    29    30   ar
    39    29    31   ar
    40    37    38   ar
    41    38    33   ar
    42     7     1   ar
    43    23    15   ar
    44    14     5    1
    45    22    18   ar
    46    24    27    1
