@<TRIPOS>MOLECULE
*****
 32 35 0 0 0
SMALL
GASTEIGER

@<TRIPOS>ATOM
      1 O          59.3271   88.2831   12.3151 O.2     1  UNL1       -0.2742
      2 C          60.6588   88.3047   11.6250 C.2     1  UNL1        0.2335
      3 N          61.8031   89.0652   12.2268 N.am    1  UNL1       -0.2755
      4 C          63.1348   89.0868   11.5367 C.3     1  UNL1        0.1148
      5 C          64.2791   89.8473   12.1385 C.3     1  UNL1        0.1124
      6 N          64.0918   90.5862   13.4304 N.pl3   1  UNL1       -0.3029
      7 C          62.7601   90.5647   14.1205 C.3     1  UNL1        0.1124
      8 C          61.6158   89.8041   13.5187 C.3     1  UNL1        0.1148
      9 C          65.2361   91.3467   14.0321 C.ar    1  UNL1        0.0674
     10 C          65.2255   91.6858   15.4933 C.ar    1  UNL1        0.0176
     11 C          66.3698   92.4463   16.0951 C.ar    1  UNL1        0.0244
     12 C          67.5247   92.8677   15.2358 C.ar    1  UNL1        0.1527
     13 N          67.5353   92.5288   13.7747 N.ar    1  UNL1       -0.2386
     14 C          66.3910   91.7682   13.1728 C.ar    1  UNL1        0.1132
     15 C          68.6690   93.6282   15.8375 C.3     1  UNL1        0.4348
     16 F          69.8133   94.3888   16.4393 F       1  UNL1       -0.1644
     17 F          68.1624   94.8907   15.2054 F       1  UNL1       -0.1644
     18 F          69.1756   92.3658   16.4697 F       1  UNL1       -0.1644
     19 C          60.8461   87.5658   10.3332 C.3     1  UNL1        0.1226
     20 C          61.7271   86.3527   10.2840 C.ar    1  UNL1       -0.0097
     21 C          62.4172   85.9784    9.0059 C.ar    1  UNL1       -0.0026
     22 C          63.2982   84.7654    8.9567 C.ar    1  UNL1        0.0111
     23 C          63.4890   83.9267   10.1856 C.ar    1  UNL1        0.0577
     24 CL         64.3700   82.7136   10.1364 Cl      1  UNL1       -0.0822
     25 C          62.7989   84.3010   11.4637 C.ar    1  UNL1        0.0111
     26 C          61.9180   85.5140   11.5129 C.ar    1  UNL1       -0.0026
     27 C          60.1525   88.0399    9.0906 C.ar    1  UNL1        0.0094
     28 C          60.4225   89.4166    8.5597 C.ar    1  UNL1       -0.0004
     29 C          59.7288   89.8906    7.3171 C.ar    1  UNL1        0.0204
     30 C          58.7652   88.9880    6.6053 C.ar    1  UNL1        0.0989
     31 N          58.4951   87.6114    7.1362 N.ar    1  UNL1       -0.2426
     32 C          59.1887   87.1373    8.3788 C.ar    1  UNL1        0.0954
@<TRIPOS>BOND
     1     1     2    2
     2     2    19    1
     3    19    20    1
     4    20    21   ar
     5    21    22   ar
     6    22    23   ar
     7    23    24    1
     8    23    25   ar
     9    25    26   ar
    10    19    27    1
    11    27    28   ar
    12    28    29   ar
    13    29    30   ar
    14    30    31   ar
    15    31    32   ar
    16     2     3   am
    17     3     4    1
    18     4     5    1
    19     5     6    1
    20     6     9    1
    21     9    10   ar
    22    10    11   ar
    23    11    12   ar
    24    12    15    1
    25    15    16    1
    26    15    17    1
    27    15    18    1
    28    12    13   ar
    29    13    14   ar
    30     6     7    1
    31     7     8    1
    32    26    20   ar
    33    32    27   ar
    34     8     3    1
    35    14     9   ar
@<TRIPOS>MOLECULE
*****
 32 35 0 0 0
SMALL
GASTEIGER

@<TRIPOS>ATOM
      1 O          64.9425   83.0921   11.3187 O.2     1  UNL1       -0.2742
      2 C          63.7044   83.7470   11.8558 C.2     1  UNL1        0.2335
      3 N          62.9345   84.7100   11.0015 N.am    1  UNL1       -0.2755
      4 C          61.6964   85.3648   11.5386 C.3     1  UNL1        0.1148
      5 C          60.9265   86.3278   10.6843 C.3     1  UNL1        0.1124
      6 N          61.3946   86.6360    9.2929 N.pl3   1  UNL1       -0.3029
      7 C          62.6326   85.9812    8.7559 C.3     1  UNL1        0.1124
      8 C          63.4026   85.0181    9.6102 C.3     1  UNL1        0.1148
      9 C          60.6247   87.5990    8.4387 C.ar    1  UNL1        0.0674
     10 C          60.7513   89.0754    8.6719 C.ar    1  UNL1        0.0176
     11 C          59.9814   90.0384    7.8176 C.ar    1  UNL1        0.0244
     12 C          59.0849   89.5251    6.7301 C.ar    1  UNL1        0.1527
     13 N          58.9582   88.0488    6.4968 N.ar    1  UNL1       -0.2386
     14 C          59.7282   87.0857    7.3511 C.ar    1  UNL1        0.1132
     15 C          58.3150   90.4880    5.8758 C.3     1  UNL1        0.4348
     16 F          57.5450   91.4511    5.0215 F       1  UNL1       -0.1644
     17 F          57.0279   89.8918    6.3636 F       1  UNL1       -0.1644
     18 F          59.6020   91.0843    5.3880 F       1  UNL1       -0.1644
     19 C          63.2363   83.4388   13.2472 C.3     1  UNL1        0.1226
     20 C          63.2403   84.5123   14.2949 C.ar    1  UNL1       -0.0097
     21 C          62.3246   84.4087   15.4784 C.ar    1  UNL1       -0.0026
     22 C          62.3286   85.4822   16.5260 C.ar    1  UNL1        0.0111
     23 C          63.2483   86.6594   16.3900 C.ar    1  UNL1        0.0577
     24 CL         63.2523   87.7329   17.4377 Cl      1  UNL1       -0.0822
     25 C          64.1640   86.7630   15.2065 C.ar    1  UNL1        0.0111
     26 C          64.1600   85.6895   14.1589 C.ar    1  UNL1       -0.0026
     27 C          62.7643   82.0572   13.5909 C.ar    1  UNL1        0.0094
     28 C          61.2982   81.7840   13.7525 C.ar    1  UNL1       -0.0004
     29 C          60.8262   80.4023   14.0963 C.ar    1  UNL1        0.0204
     30 C          61.8202   79.2938   14.2783 C.ar    1  UNL1        0.0989
     31 N          63.2862   79.5669   14.1167 N.ar    1  UNL1       -0.2426
     32 C          63.7583   80.9486   13.7730 C.ar    1  UNL1        0.0954
@<TRIPOS>BOND
     1     1     2    2
     2     2    19    1
     3    19    20    1
     4    20    21   ar
     5    21    22   ar
     6    22    23   ar
     7    23    24    1
     8    23    25   ar
     9    25    26   ar
    10    19    27    1
    11    27    28   ar
    12    28    29   ar
    13    29    30   ar
    14    30    31   ar
    15    31    32   ar
    16     2     3   am
    17     3     4    1
    18     4     5    1
    19     5     6    1
    20     6     9    1
    21     9    10   ar
    22    10    11   ar
    23    11    12   ar
    24    12    15    1
    25    15    16    1
    26    15    17    1
    27    15    18    1
    28    12    13   ar
    29    13    14   ar
    30     6     7    1
    31     7     8    1
    32    26    20   ar
    33    32    27   ar
    34     8     3    1
    35    14     9   ar
@<TRIPOS>MOLECULE
*****
 32 35 0 0 0
SMALL
GASTEIGER

@<TRIPOS>ATOM
      1 O          61.4339   92.0173   -0.3011 O.2     1  UNL1       -0.2742
      2 C          61.2468   93.1870   -1.2215 C.2     1  UNL1        0.2335
      3 N          59.8644   93.6455   -1.5799 N.am    1  UNL1       -0.2755
      4 C          59.6772   94.8152   -2.5003 C.3     1  UNL1        0.1148
      5 C          58.2948   95.2738   -2.8588 C.3     1  UNL1        0.1124
      6 N          57.0995   94.5628   -2.2970 N.pl3   1  UNL1       -0.3029
      7 C          57.2866   93.3932   -1.3766 C.3     1  UNL1        0.1124
      8 C          58.6690   92.9345   -1.0181 C.3     1  UNL1        0.1148
      9 C          55.7170   95.0214   -2.6554 C.ar    1  UNL1        0.0674
     10 C          54.6777   95.1780   -1.5852 C.ar    1  UNL1        0.0176
     11 C          53.2952   95.6365   -1.9437 C.ar    1  UNL1        0.0244
     12 C          52.9521   95.9386   -3.3724 C.ar    1  UNL1        0.1527
     13 N          53.9914   95.7820   -4.4426 N.ar    1  UNL1       -0.2386
     14 C          55.3739   95.3234   -4.0841 C.ar    1  UNL1        0.1132
     15 C          51.5697   96.3971   -3.7309 C.3     1  UNL1        0.4348
     16 F          50.1872   96.8558   -4.0894 F       1  UNL1       -0.1644
     17 F          51.9920   96.5516   -5.1618 F       1  UNL1       -0.1644
     18 F          51.1474   96.2427   -2.2999 F       1  UNL1       -0.1644
     19 C          62.4421   93.8980   -1.7833 C.3     1  UNL1        0.1226
     20 C          62.8810   93.6291   -3.1923 C.ar    1  UNL1       -0.0097
     21 C          62.3411   94.4610   -4.3176 C.ar    1  UNL1       -0.0026
     22 C          62.7799   94.1921   -5.7265 C.ar    1  UNL1        0.0111
     23 C          63.7586   93.0913   -6.0101 C.ar    1  UNL1        0.0577
     24 CL         64.1974   92.8225   -7.4191 Cl      1  UNL1       -0.0822
     25 C          64.2985   92.2595   -4.8848 C.ar    1  UNL1        0.0111
     26 C          63.8597   92.5283   -3.4759 C.ar    1  UNL1       -0.0026
     27 C          63.1986   94.8778   -0.9362 C.ar    1  UNL1        0.0094
     28 C          64.6224   95.2135   -1.2679 C.ar    1  UNL1       -0.0004
     29 C          65.3790   96.1933   -0.4208 C.ar    1  UNL1        0.0204
     30 C          64.7116   96.8375    0.7581 C.ar    1  UNL1        0.0989
     31 N          63.2878   96.5018    1.0899 N.ar    1  UNL1       -0.2426
     32 C          62.5313   95.5220    0.2428 C.ar    1  UNL1        0.0954
@<TRIPOS>BOND
     1     1     2    2
     2     2    19    1
     3    19    20    1
     4    20    21   ar
     5    21    22   ar
     6    22    23   ar
     7    23    24    1
     8    23    25   ar
     9    25    26   ar
    10    19    27    1
    11    27    28   ar
    12    28    29   ar
    13    29    30   ar
    14    30    31   ar
    15    31    32   ar
    16     2     3   am
    17     3     4    1
    18     4     5    1
    19     5     6    1
    20     6     9    1
    21     9    10   ar
    22    10    11   ar
    23    11    12   ar
    24    12    15    1
    25    15    16    1
    26    15    17    1
    27    15    18    1
    28    12    13   ar
    29    13    14   ar
    30     6     7    1
    31     7     8    1
    32    26    20   ar
    33    32    27   ar
    34     8     3    1
    35    14     9   ar
@<TRIPOS>MOLECULE
*****
 32 35 0 0 0
SMALL
GASTEIGER

@<TRIPOS>ATOM
      1 O          65.3824   96.1051   -2.3892 O.2     1  UNL1       -0.2742
      2 C          64.1706   95.2522   -2.6221 C.2     1  UNL1        0.2335
      3 N          63.4457   94.6451   -1.4577 N.am    1  UNL1       -0.2755
      4 C          62.2339   93.7923   -1.6906 C.3     1  UNL1        0.1148
      5 C          61.5089   93.1852   -0.5262 C.3     1  UNL1        0.1124
      6 N          61.9957   93.4310    0.8711 N.pl3   1  UNL1       -0.3029
      7 C          63.2075   94.2838    1.1041 C.3     1  UNL1        0.1124
      8 C          63.9325   94.8909   -0.0604 C.3     1  UNL1        0.1148
      9 C          61.2708   92.8239    2.0355 C.ar    1  UNL1        0.0674
     10 C          62.0171   91.9811    3.0269 C.ar    1  UNL1        0.0176
     11 C          61.2922   91.3740    4.1913 C.ar    1  UNL1        0.0244
     12 C          59.8210   91.6097    4.3644 C.ar    1  UNL1        0.1527
     13 N          59.0747   92.4525    3.3731 N.ar    1  UNL1       -0.2386
     14 C          59.7996   93.0596    2.2086 C.ar    1  UNL1        0.1132
     15 C          59.0960   91.0026    5.5288 C.3     1  UNL1        0.4348
     16 F          58.3710   90.3956    6.6933 F       1  UNL1       -0.1644
     17 F          57.9275   91.9077    5.2732 F       1  UNL1       -0.1644
     18 F          60.2645   90.0975    5.7844 F       1  UNL1       -0.1644
     19 C          63.6838   95.0064   -4.0195 C.3     1  UNL1        0.1226
     20 C          62.2579   95.3018   -4.3798 C.ar    1  UNL1       -0.0097
     21 C          61.6058   96.5605   -3.8897 C.ar    1  UNL1       -0.0026
     22 C          60.1800   96.8558   -4.2500 C.ar    1  UNL1        0.0111
     23 C          59.4063   95.8923   -5.1003 C.ar    1  UNL1        0.0577
     24 CL         57.9804   96.1876   -5.4606 Cl      1  UNL1       -0.0822
     25 C          60.0584   94.6335   -5.5904 C.ar    1  UNL1        0.0111
     26 C          61.4842   94.3383   -5.2301 C.ar    1  UNL1       -0.0026
     27 C          64.6228   94.4654   -5.0566 C.ar    1  UNL1        0.0094
     28 C          65.3356   95.4032   -5.9852 C.ar    1  UNL1       -0.0004
     29 C          66.2746   94.8621   -7.0223 C.ar    1  UNL1        0.0204
     30 C          66.5008   93.3833   -7.1307 C.ar    1  UNL1        0.0989
     31 N          65.7880   92.4455   -6.2021 N.ar    1  UNL1       -0.2426
     32 C          64.8490   92.9865   -5.1650 C.ar    1  UNL1        0.0954
@<TRIPOS>BOND
     1     1     2    2
     2     2    19    1
     3    19    20    1
     4    20    21   ar
     5    21    22   ar
     6    22    23   ar
     7    23    24    1
     8    23    25   ar
     9    25    26   ar
    10    19    27    1
    11    27    28   ar
    12    28    29   ar
    13    29    30   ar
    14    30    31   ar
    15    31    32   ar
    16     2     3   am
    17     3     4    1
    18     4     5    1
    19     5     6    1
    20     6     9    1
    21     9    10   ar
    22    10    11   ar
    23    11    12   ar
    24    12    15    1
    25    15    16    1
    26    15    17    1
    27    15    18    1
    28    12    13   ar
    29    13    14   ar
    30     6     7    1
    31     7     8    1
    32    26    20   ar
    33    32    27   ar
    34     8     3    1
    35    14     9   ar
@<TRIPOS>MOLECULE
*****
 32 35 0 0 0
SMALL
GASTEIGER

@<TRIPOS>ATOM
      1 O          62.2382   85.6782   12.6159 O.2     1  UNL1       -0.2742
      2 C          62.2755   87.0700   12.0576 C.2     1  UNL1        0.2335
      3 N          63.2168   88.0848   12.6354 N.am    1  UNL1       -0.2755
      4 C          63.2541   89.4766   12.0772 C.3     1  UNL1        0.1148
      5 C          64.1954   90.4915   12.6550 C.3     1  UNL1        0.1124
      6 N          65.0995   90.1146   13.7911 N.pl3   1  UNL1       -0.3029
      7 C          65.0622   88.7229   14.3493 C.3     1  UNL1        0.1124
      8 C          64.1208   87.7080   13.7715 C.3     1  UNL1        0.1148
      9 C          66.0408   91.1295   14.3689 C.ar    1  UNL1        0.0674
     10 C          65.7539   91.7418   15.7079 C.ar    1  UNL1        0.0176
     11 C          66.6952   92.7566   16.2857 C.ar    1  UNL1        0.0244
     12 C          67.9235   93.1593   15.5246 C.ar    1  UNL1        0.1527
     13 N          68.2104   92.5471   14.1856 N.ar    1  UNL1       -0.2386
     14 C          67.2690   91.5321   13.6077 C.ar    1  UNL1        0.1132
     15 C          68.8648   94.1741   16.1024 C.3     1  UNL1        0.4348
     16 F          69.8061   95.1891   16.6802 F       1  UNL1       -0.1644
     17 F          68.1313   95.2654   15.3806 F       1  UNL1       -0.1644
     18 F          69.5983   93.0828   16.8242 F       1  UNL1       -0.1644
     19 C          61.3714   87.4468   10.9215 C.3     1  UNL1        0.1226
     20 C          61.4038   86.6603    9.6446 C.ar    1  UNL1       -0.0097
     21 C          62.6640   85.9635    9.2247 C.ar    1  UNL1       -0.0026
     22 C          62.6963   85.1770    7.9479 C.ar    1  UNL1        0.0111
     23 C          61.4685   85.0874    7.0909 C.ar    1  UNL1        0.0577
     24 CL         61.5009   84.3009    5.8140 Cl      1  UNL1       -0.0822
     25 C          60.2084   85.7843    7.5108 C.ar    1  UNL1        0.0111
     26 C          60.1760   86.5707    8.7876 C.ar    1  UNL1       -0.0026
     27 C          60.4350   88.6101   11.0623 C.ar    1  UNL1        0.0094
     28 C          59.4688   88.6607   12.2085 C.ar    1  UNL1       -0.0004
     29 C          58.5323   89.8240   12.3493 C.ar    1  UNL1        0.0204
     30 C          58.5622   90.9367   11.3438 C.ar    1  UNL1        0.0989
     31 N          59.5284   90.8862   10.1976 N.ar    1  UNL1       -0.2426
     32 C          60.4648   89.7229   10.0568 C.ar    1  UNL1        0.0954
@<TRIPOS>BOND
     1     1     2    2
     2     2    19    1
     3    19    20    1
     4    20    21   ar
     5    21    22   ar
     6    22    23   ar
     7    23    24    1
     8    23    25   ar
     9    25    26   ar
    10    19    27    1
    11    27    28   ar
    12    28    29   ar
    13    29    30   ar
    14    30    31   ar
    15    31    32   ar
    16     2     3   am
    17     3     4    1
    18     4     5    1
    19     5     6    1
    20     6     9    1
    21     9    10   ar
    22    10    11   ar
    23    11    12   ar
    24    12    15    1
    25    15    16    1
    26    15    17    1
    27    15    18    1
    28    12    13   ar
    29    13    14   ar
    30     6     7    1
    31     7     8    1
    32    26    20   ar
    33    32    27   ar
    34     8     3    1
    35    14     9   ar
@<TRIPOS>MOLECULE
*****
 32 35 0 0 0
SMALL
GASTEIGER

@<TRIPOS>ATOM
      1 O          59.4943   88.2415   12.3156 O.2     1  UNL1       -0.2742
      2 C          60.8018   88.3588   11.5898 C.2     1  UNL1        0.2335
      3 N          61.9356   89.1235   12.2060 N.am    1  UNL1       -0.2755
      4 C          63.2432   89.2408   11.4802 C.3     1  UNL1        0.1148
      5 C          64.3770   90.0055   12.0963 C.3     1  UNL1        0.1124
      6 N          64.2034   90.6530   13.4382 N.pl3   1  UNL1       -0.3029
      7 C          62.8959   90.5357   14.1640 C.3     1  UNL1        0.1124
      8 C          61.7620   89.7709   13.5479 C.3     1  UNL1        0.1148
      9 C          65.3372   91.4177   14.0543 C.ar    1  UNL1        0.0674
     10 C          65.3312   91.7128   15.5250 C.ar    1  UNL1        0.0176
     11 C          66.4650   92.4775   16.1411 C.ar    1  UNL1        0.0244
     12 C          67.6048   92.9471   15.2866 C.ar    1  UNL1        0.1527
     13 N          67.6109   92.6520   13.8160 N.ar    1  UNL1       -0.2386
     14 C          66.4770   91.8873   13.1998 C.ar    1  UNL1        0.1132
     15 C          68.7386   93.7118   15.9027 C.3     1  UNL1        0.4348
     16 F          69.8725   94.4766   16.5189 F       1  UNL1       -0.1644
     17 F          68.2382   94.9715   15.2603 F       1  UNL1       -0.1644
     18 F          69.2391   92.4522   16.5452 F       1  UNL1       -0.1644
     19 C          60.9754   87.7114   10.2479 C.3     1  UNL1        0.1226
     20 C          60.3316   88.3151    9.0350 C.ar    1  UNL1       -0.0097
     21 C          60.6125   89.7422    8.6686 C.ar    1  UNL1       -0.0026
     22 C          59.9686   90.3458    7.4558 C.ar    1  UNL1        0.0111
     23 C          59.0438   89.5222    6.6093 C.ar    1  UNL1        0.0577
     24 CL         58.3999   90.1259    5.3964 Cl      1  UNL1       -0.0822
     25 C          58.7629   88.0951    6.9757 C.ar    1  UNL1        0.0111
     26 C          59.4067   87.4915    8.1886 C.ar    1  UNL1       -0.0026
     27 C          61.7929   86.4604   10.1189 C.ar    1  UNL1        0.0094
     28 C          62.4390   86.1184    8.8091 C.ar    1  UNL1       -0.0004
     29 C          63.2565   84.8673    8.6801 C.ar    1  UNL1        0.0204
     30 C          63.4278   83.9583    9.8609 C.ar    1  UNL1        0.0989
     31 N          62.7817   84.3002   11.1707 N.ar    1  UNL1       -0.2426
     32 C          61.9642   85.5513   11.2997 C.ar    1  UNL1        0.0954
@<TRIPOS>BOND
     1     1     2    2
     2     2    19    1
     3    19    20    1
     4    20    21   ar
     5    21    22   ar
     6    22    23   ar
     7    23    24    1
     8    23    25   ar
     9    25    26   ar
    10    19    27    1
    11    27    28   ar
    12    28    29   ar
    13    29    30   ar
    14    30    31   ar
    15    31    32   ar
    16     2     3   am
    17     3     4    1
    18     4     5    1
    19     5     6    1
    20     6     9    1
    21     9    10   ar
    22    10    11   ar
    23    11    12   ar
    24    12    15    1
    25    15    16    1
    26    15    17    1
    27    15    18    1
    28    12    13   ar
    29    13    14   ar
    30     6     7    1
    31     7     8    1
    32    26    20   ar
    33    32    27   ar
    34     8     3    1
    35    14     9   ar
@<TRIPOS>MOLECULE
*****
 32 35 0 0 0
SMALL
GASTEIGER

@<TRIPOS>ATOM
      1 O          58.7837   88.0462   10.5322 O.2     1  UNL1       -0.2742
      2 C          60.0562   88.4428    9.8439 C.2     1  UNL1        0.2335
      3 N          61.1326   89.1537   10.6093 N.am    1  UNL1       -0.2755
      4 C          62.4051   89.5503    9.9211 C.3     1  UNL1        0.1148
      5 C          63.4816   90.2612   10.6864 C.3     1  UNL1        0.1124
      6 N          63.2857   90.5755   12.1399 N.pl3   1  UNL1       -0.3029
      7 C          62.0133   90.1789   12.8282 C.3     1  UNL1        0.1124
      8 C          60.9367   89.4680   12.0628 C.3     1  UNL1        0.1148
      9 C          64.3622   91.2864   12.9053 C.ar    1  UNL1        0.0674
     10 C          64.6771   90.8762   14.3134 C.ar    1  UNL1        0.0176
     11 C          65.7536   91.5870   15.0787 C.ar    1  UNL1        0.0244
     12 C          66.5152   92.7081   14.4360 C.ar    1  UNL1        0.1527
     13 N          66.2004   93.1183   13.0280 N.ar    1  UNL1       -0.2386
     14 C          65.1239   92.4074   12.2626 C.ar    1  UNL1        0.1132
     15 C          67.5917   93.4190   15.2014 C.3     1  UNL1        0.4348
     16 F          68.6683   94.1299   15.9667 F       1  UNL1       -0.1644
     17 F          67.2455   94.6987   14.4997 F       1  UNL1       -0.1644
     18 F          67.9380   92.1392   15.9030 F       1  UNL1       -0.1644
     19 C          60.2520   88.1285    8.3904 C.3     1  UNL1        0.1226
     20 C          59.7558   89.0814    7.3435 C.ar    1  UNL1       -0.0097
     21 C          60.7277   89.9390    6.5887 C.ar    1  UNL1       -0.0026
     22 C          60.2314   90.8918    5.5419 C.ar    1  UNL1        0.0111
     23 C          58.7632   90.9869    5.2499 C.ar    1  UNL1        0.0577
     24 CL         58.2669   91.9398    4.2030 Cl      1  UNL1       -0.0822
     25 C          57.7913   90.1293    6.0047 C.ar    1  UNL1        0.0111
     26 C          58.2876   89.1765    7.0515 C.ar    1  UNL1       -0.0026
     27 C          60.9442   86.8615    7.9837 C.ar    1  UNL1        0.0094
     28 C          62.2716   86.5057    8.5848 C.ar    1  UNL1       -0.0004
     29 C          62.9637   85.2386    8.1781 C.ar    1  UNL1        0.0204
     30 C          62.3284   84.3273    7.1702 C.ar    1  UNL1        0.0989
     31 N          61.0010   84.6830    6.5690 N.ar    1  UNL1       -0.2426
     32 C          60.3089   85.9501    6.9757 C.ar    1  UNL1        0.0954
@<TRIPOS>BOND
     1     1     2    2
     2     2    19    1
     3    19    20    1
     4    20    21   ar
     5    21    22   ar
     6    22    23   ar
     7    23    24    1
     8    23    25   ar
     9    25    26   ar
    10    19    27    1
    11    27    28   ar
    12    28    29   ar
    13    29    30   ar
    14    30    31   ar
    15    31    32   ar
    16     2     3   am
    17     3     4    1
    18     4     5    1
    19     5     6    1
    20     6     9    1
    21     9    10   ar
    22    10    11   ar
    23    11    12   ar
    24    12    15    1
    25    15    16    1
    26    15    17    1
    27    15    18    1
    28    12    13   ar
    29    13    14   ar
    30     6     7    1
    31     7     8    1
    32    26    20   ar
    33    32    27   ar
    34     8     3    1
    35    14     9   ar
@<TRIPOS>MOLECULE
*****
 32 35 0 0 0
SMALL
GASTEIGER

@<TRIPOS>ATOM
      1 O          59.8076   88.0650   11.0268 O.2     1  UNL1       -0.2742
      2 C          61.1969   87.5769   11.3127 C.2     1  UNL1        0.2335
      3 N          62.1935   88.4898   11.9634 N.am    1  UNL1       -0.2755
      4 C          63.5828   88.0017   12.2492 C.3     1  UNL1        0.1148
      5 C          64.5794   88.9146   12.8999 C.3     1  UNL1        0.1124
      6 N          64.1867   90.3156   13.2647 N.pl3   1  UNL1       -0.3029
      7 C          62.7975   90.8036   12.9789 C.3     1  UNL1        0.1124
      8 C          61.8008   89.8908   12.3282 C.3     1  UNL1        0.1148
      9 C          65.1833   91.2284   13.9154 C.ar    1  UNL1        0.0674
     10 C          65.0637   91.5507   15.3756 C.ar    1  UNL1        0.0176
     11 C          66.0603   92.4636   16.0262 C.ar    1  UNL1        0.0244
     12 C          67.1765   93.0542   15.2169 C.ar    1  UNL1        0.1527
     13 N          67.2962   92.7320   13.7568 N.ar    1  UNL1       -0.2386
     14 C          66.2996   91.8191   13.1060 C.ar    1  UNL1        0.1132
     15 C          68.1731   93.9671   15.8675 C.3     1  UNL1        0.4348
     16 F          69.1698   94.8800   16.5183 F       1  UNL1       -0.1644
     17 F          68.7012   92.8169   16.6725 F       1  UNL1       -0.1644
     18 F          67.6450   95.1174   15.0626 F       1  UNL1       -0.1644
     19 C          61.5895   86.1760   10.9478 C.3     1  UNL1        0.1226
     20 C          61.6251   85.7580    9.5076 C.ar    1  UNL1       -0.0097
     21 C          60.4063   85.9217    8.6488 C.ar    1  UNL1       -0.0026
     22 C          60.4419   85.5038    7.2087 C.ar    1  UNL1        0.0111
     23 C          61.6963   84.9221    6.6274 C.ar    1  UNL1        0.0577
     24 CL         61.7319   84.5041    5.1871 Cl      1  UNL1       -0.0822
     25 C          62.9152   84.7583    7.4861 C.ar    1  UNL1        0.0111
     26 C          62.8796   85.1763    8.9262 C.ar    1  UNL1       -0.0026
     27 C          61.9466   85.1930   12.0231 C.ar    1  UNL1        0.0094
     28 C          62.3624   83.7990   11.6569 C.ar    1  UNL1       -0.0004
     29 C          62.7195   82.8160   12.7323 C.ar    1  UNL1        0.0204
     30 C          62.6608   83.2270   14.1736 C.ar    1  UNL1        0.0989
     31 N          62.2450   84.6209   14.5398 N.ar    1  UNL1       -0.2426
     32 C          61.8879   85.6039   13.4645 C.ar    1  UNL1        0.0954
@<TRIPOS>BOND
     1     1     2    2
     2     2    19    1
     3    19    20    1
     4    20    21   ar
     5    21    22   ar
     6    22    23   ar
     7    23    24    1
     8    23    25   ar
     9    25    26   ar
    10    19    27    1
    11    27    28   ar
    12    28    29   ar
    13    29    30   ar
    14    30    31   ar
    15    31    32   ar
    16     2     3   am
    17     3     4    1
    18     4     5    1
    19     5     6    1
    20     6     9    1
    21     9    10   ar
    22    10    11   ar
    23    11    12   ar
    24    12    15    1
    25    15    16    1
    26    15    17    1
    27    15    18    1
    28    12    13   ar
    29    13    14   ar
    30     6     7    1
    31     7     8    1
    32    26    20   ar
    33    32    27   ar
    34     8     3    1
    35    14     9   ar
@<TRIPOS>MOLECULE
*****
 32 35 0 0 0
SMALL
GASTEIGER

@<TRIPOS>ATOM
      1 O          61.1041   85.2092   10.8365 O.2     1  UNL1       -0.2742
      2 C          62.0463   85.6009   11.9360 C.2     1  UNL1        0.2335
      3 N          62.6403   86.9780   11.9596 N.am    1  UNL1       -0.2755
      4 C          63.5825   87.3697   13.0591 C.3     1  UNL1        0.1148
      5 C          64.1766   88.7468   13.0827 C.3     1  UNL1        0.1124
      6 N          63.8285   89.7323   12.0067 N.pl3   1  UNL1       -0.3029
      7 C          62.8864   89.3407   10.9072 C.3     1  UNL1        0.1124
      8 C          62.2923   87.9635   10.8836 C.3     1  UNL1        0.1148
      9 C          64.4226   91.1094   12.0303 C.ar    1  UNL1        0.0674
     10 C          64.4615   91.9311   10.7759 C.ar    1  UNL1        0.0176
     11 C          65.0555   93.3082   10.7994 C.ar    1  UNL1        0.0244
     12 C          65.6108   93.8637   12.0773 C.ar    1  UNL1        0.1527
     13 N          65.5720   93.0421   13.3317 N.ar    1  UNL1       -0.2386
     14 C          64.9779   91.6650   13.3082 C.ar    1  UNL1        0.1132
     15 C          66.2049   95.2408   12.1009 C.3     1  UNL1        0.4348
     16 F          66.7990   96.6180   12.1245 F       1  UNL1       -0.1644
     17 F          66.5740   95.0569   13.5430 F       1  UNL1       -0.1644
     18 F          65.8358   95.4247   10.6587 F       1  UNL1       -0.1644
     19 C          62.3943   84.6155   13.0120 C.3     1  UNL1        0.1226
     20 C          62.5074   83.1560   12.6843 C.ar    1  UNL1       -0.0097
     21 C          63.0830   82.7253   11.3678 C.ar    1  UNL1       -0.0026
     22 C          63.1961   81.2660   11.0402 C.ar    1  UNL1        0.0111
     23 C          62.7334   80.2373   12.0290 C.ar    1  UNL1        0.0577
     24 CL         62.8465   78.7778   11.7013 Cl      1  UNL1       -0.0822
     25 C          62.1578   80.6679   13.3454 C.ar    1  UNL1        0.0111
     26 C          62.0447   82.1273   13.6731 C.ar    1  UNL1       -0.0026
     27 C          62.6293   85.0894   14.4156 C.ar    1  UNL1        0.0094
     28 C          64.0209   85.4061   14.8772 C.ar    1  UNL1       -0.0004
     29 C          64.2558   85.8800   16.2809 C.ar    1  UNL1        0.0204
     30 C          63.0992   86.0372   17.2229 C.ar    1  UNL1        0.0989
     31 N          61.7076   85.7204   16.7613 N.ar    1  UNL1       -0.2426
     32 C          61.4726   85.2465   15.3577 C.ar    1  UNL1        0.0954
@<TRIPOS>BOND
     1     1     2    2
     2     2    19    1
     3    19    20    1
     4    20    21   ar
     5    21    22   ar
     6    22    23   ar
     7    23    24    1
     8    23    25   ar
     9    25    26   ar
    10    19    27    1
    11    27    28   ar
    12    28    29   ar
    13    29    30   ar
    14    30    31   ar
    15    31    32   ar
    16     2     3   am
    17     3     4    1
    18     4     5    1
    19     5     6    1
    20     6     9    1
    21     9    10   ar
    22    10    11   ar
    23    11    12   ar
    24    12    15    1
    25    15    16    1
    26    15    17    1
    27    15    18    1
    28    12    13   ar
    29    13    14   ar
    30     6     7    1
    31     7     8    1
    32    26    20   ar
    33    32    27   ar
    34     8     3    1
    35    14     9   ar
