@<TRIPOS>MOLECULE
*****
 27 30 0 0 0
SMALL
GASTEIGER

@<TRIPOS>ATOM
      1 C          64.0510   88.3886   14.8078 C.ar    1  UNL1        0.2035
      2 N          64.1397   87.0335   14.1707 N.ar    1  UNL1       -0.2133
      3 C          63.6976   85.8176   14.9296 C.ar    1  UNL1        0.1065
      4 C          63.1666   85.9567   16.3256 C.ar    1  UNL1        0.0815
      5 C          63.0779   87.3118   16.9627 C.ar    1  UNL1        0.2646
      6 O          62.5471   87.4509   18.3587 O.2     1  UNL1       -0.2668
      7 N          63.5202   88.5278   16.2037 N.ar    1  UNL1       -0.2667
      8 C          63.4315   89.8828   16.8408 C.3     1  UNL1        0.1363
      9 C          62.5908   89.2187   12.3221 C.3     1  UNL1        0.0233
     10 C          63.7631   90.0196   12.8060 C.3     1  UNL1        0.0953
     11 C          64.2054   91.2355   12.0471 C.3     1  UNL1        0.1106
     12 N          65.3777   92.0364   12.5311 N.pl3   1  UNL1       -0.3040
     13 C          66.1078   91.6214   13.7739 C.3     1  UNL1        0.1123
     14 C          65.6656   90.4055   14.5328 C.3     1  UNL1        0.1149
     15 N          64.4932   89.6046   14.0488 N.pl3   1  UNL1       -0.2777
     16 C          65.8199   93.2524   11.7721 C.ar    1  UNL1        0.0511
     17 C          66.0436   93.1718   10.2911 C.ar    1  UNL1        0.0352
     18 C          66.4858   94.3877    9.5321 C.ar    1  UNL1        0.1002
     19 N          66.7043   95.6842   10.2542 N.ar    1  UNL1       -0.2422
     20 C          66.4806   95.7648   11.7352 C.ar    1  UNL1        0.1002
     21 C          66.0384   94.5488   12.4942 C.ar    1  UNL1        0.0352
     22 C          63.7863   84.4625   14.2925 C.ar    1  UNL1        0.1024
     23 C          64.2067   84.3341   12.8584 C.ar    1  UNL1        0.0414
     24 C          64.2954   82.9790   12.2213 C.ar    1  UNL1        0.1023
     25 N          63.9637   81.7523   13.0183 N.ar    1  UNL1       -0.2224
     26 C          63.5432   81.8808   14.4525 C.ar    1  UNL1        0.1989
     27 N          63.4545   83.2358   15.0896 N.ar    1  UNL1       -0.2224
@<TRIPOS>BOND
     1    10     9    1
     2    10    11    1
     3    11    12    1
     4    12    16    1
     5    16    17   ar
     6    17    18   ar
     7    18    19   ar
     8    19    20   ar
     9    20    21   ar
    10    12    13    1
    11    13    14    1
    12    14    15    1
    13    15     1    1
    14     1     2   ar
    15     2     3   ar
    16     3    22    1
    17    22    23   ar
    18    23    24   ar
    19    24    25   ar
    20    25    26   ar
    21    26    27   ar
    22     3     4   ar
    23     4     5   ar
    24     5     6    2
    25     5     7   ar
    26     7     8    1
    27    15    10    1
    28     7     1   ar
    29    21    16   ar
    30    27    22   ar
@<TRIPOS>MOLECULE
*****
 27 30 0 0 0
SMALL
GASTEIGER

@<TRIPOS>ATOM
      1 C          64.3470   89.5879   14.0597 C.ar    1  UNL1        0.2035
      2 N          65.0564   90.4073   13.0227 N.ar    1  UNL1       -0.2133
      3 C          65.3595   91.8523   13.2872 C.ar    1  UNL1        0.1065
      4 C          64.9533   92.4780   14.5886 C.ar    1  UNL1        0.0815
      5 C          64.2439   91.6585   15.6255 C.ar    1  UNL1        0.2646
      6 O          63.8377   92.2841   16.9269 O.2     1  UNL1       -0.2668
      7 N          63.9407   90.2134   15.3611 N.ar    1  UNL1       -0.2667
      8 C          63.2313   89.3940   16.3980 C.3     1  UNL1        0.1363
      9 C          62.7132   88.8115   11.6663 C.3     1  UNL1        0.0233
     10 C          63.2269   87.7547   12.5985 C.3     1  UNL1        0.0953
     11 C          62.9238   86.3096   12.3341 C.3     1  UNL1        0.1106
     12 N          63.4375   85.2527   13.2663 N.pl3   1  UNL1       -0.3040
     13 C          64.2544   85.6409   14.4630 C.3     1  UNL1        0.1123
     14 C          64.5575   87.0859   14.7274 C.3     1  UNL1        0.1149
     15 N          64.0438   88.1428   13.7952 N.pl3   1  UNL1       -0.2777
     16 C          63.1344   83.8076   13.0018 C.ar    1  UNL1        0.0511
     17 C          62.5135   82.9630   14.0748 C.ar    1  UNL1        0.0352
     18 C          62.2103   81.5180   13.8103 C.ar    1  UNL1        0.1002
     19 N          62.5280   80.9175   12.4729 N.ar    1  UNL1       -0.2422
     20 C          63.1489   81.7621   11.4000 C.ar    1  UNL1        0.1002
     21 C          63.4521   83.2072   11.6645 C.ar    1  UNL1        0.0352
     22 C          66.0689   92.6718   12.2502 C.ar    1  UNL1        0.1024
     23 C          66.9880   92.0070   11.2687 C.ar    1  UNL1        0.0414
     24 C          67.6973   92.8265   10.2318 C.ar    1  UNL1        0.1023
     25 N          67.4877   94.3107   10.1763 N.ar    1  UNL1       -0.2224
     26 C          66.5686   94.9756   11.1579 C.ar    1  UNL1        0.1989
     27 N          65.8593   94.1561   12.1948 N.ar    1  UNL1       -0.2224
@<TRIPOS>BOND
     1    10     9    1
     2    10    11    1
     3    11    12    1
     4    12    16    1
     5    16    17   ar
     6    17    18   ar
     7    18    19   ar
     8    19    20   ar
     9    20    21   ar
    10    12    13    1
    11    13    14    1
    12    14    15    1
    13    15     1    1
    14     1     2   ar
    15     2     3   ar
    16     3    22    1
    17    22    23   ar
    18    23    24   ar
    19    24    25   ar
    20    25    26   ar
    21    26    27   ar
    22     3     4   ar
    23     4     5   ar
    24     5     6    2
    25     5     7   ar
    26     7     8    1
    27    15    10    1
    28     7     1   ar
    29    21    16   ar
    30    27    22   ar
@<TRIPOS>MOLECULE
*****
 27 30 0 0 0
SMALL
GASTEIGER

@<TRIPOS>ATOM
      1 C          63.4058   88.4336   12.4146 C.ar    1  UNL1        0.2035
      2 N          64.1693   89.1678   13.4768 N.ar    1  UNL1       -0.2133
      3 C          64.3845   90.6475   13.3584 C.ar    1  UNL1        0.1065
      4 C          63.8363   91.3931   12.1779 C.ar    1  UNL1        0.0815
      5 C          63.0728   90.6589   11.1158 C.ar    1  UNL1        0.2646
      6 O          62.5246   91.4045    9.9353 O.2     1  UNL1       -0.2668
      7 N          62.8576   89.1791   11.2342 N.ar    1  UNL1       -0.2667
      8 C          62.0942   88.4449   10.1720 C.3     1  UNL1        0.1363
      9 C          64.4756   86.9475   14.7911 C.3     1  UNL1        0.0233
     10 C          63.7255   86.2108   13.7212 C.3     1  UNL1        0.0953
     11 C          63.5102   84.7311   13.8396 C.3     1  UNL1        0.1106
     12 N          62.7601   83.9943   12.7697 N.pl3   1  UNL1       -0.3040
     13 C          62.2253   84.7373   11.5815 C.3     1  UNL1        0.1123
     14 C          62.4405   86.2170   11.4632 C.3     1  UNL1        0.1149
     15 N          63.1906   86.9538   12.5330 N.pl3   1  UNL1       -0.2777
     16 C          62.5449   82.5145   12.8881 C.ar    1  UNL1        0.0511
     17 C          61.8813   81.9484   14.1084 C.ar    1  UNL1        0.0352
     18 C          61.6661   80.4687   14.2269 C.ar    1  UNL1        0.1002
     19 N          62.1145   79.5550   13.1249 N.ar    1  UNL1       -0.2422
     20 C          62.7781   80.1211   11.9046 C.ar    1  UNL1        0.1002
     21 C          62.9933   81.6009   11.7862 C.ar    1  UNL1        0.0352
     22 C          65.1480   91.3817   14.4206 C.ar    1  UNL1        0.1024
     23 C          66.6025   91.6893   14.2216 C.ar    1  UNL1        0.0414
     24 C          67.3659   92.4235   15.2837 C.ar    1  UNL1        0.1023
     25 N          66.6748   92.8500   16.5449 N.ar    1  UNL1       -0.2224
     26 C          65.2202   92.5424   16.7439 C.ar    1  UNL1        0.1989
     27 N          64.4568   91.8082   15.6817 N.ar    1  UNL1       -0.2224
@<TRIPOS>BOND
     1    10     9    1
     2    10    11    1
     3    11    12    1
     4    12    16    1
     5    16    17   ar
     6    17    18   ar
     7    18    19   ar
     8    19    20   ar
     9    20    21   ar
    10    12    13    1
    11    13    14    1
    12    14    15    1
    13    15     1    1
    14     1     2   ar
    15     2     3   ar
    16     3    22    1
    17    22    23   ar
    18    23    24   ar
    19    24    25   ar
    20    25    26   ar
    21    26    27   ar
    22     3     4   ar
    23     4     5   ar
    24     5     6    2
    25     5     7   ar
    26     7     8    1
    27    15    10    1
    28     7     1   ar
    29    21    16   ar
    30    27    22   ar
@<TRIPOS>MOLECULE
*****
 27 30 0 0 0
SMALL
GASTEIGER

@<TRIPOS>ATOM
      1 C          62.3162   88.1990   11.5860 C.ar    1  UNL1        0.2035
      2 N          63.5096   89.0304   11.9528 N.ar    1  UNL1       -0.2133
      3 C          63.4285   90.5269   11.8919 C.ar    1  UNL1        0.1065
      4 C          62.1539   91.1922   11.4642 C.ar    1  UNL1        0.0815
      5 C          60.9604   90.3608   11.0973 C.ar    1  UNL1        0.2646
      6 O          59.6859   91.0259   10.6696 O.2     1  UNL1       -0.2668
      7 N          61.0416   88.8642   11.1583 N.ar    1  UNL1       -0.2667
      8 C          59.8482   88.0328   10.7914 C.3     1  UNL1        0.1363
      9 C          62.3675   86.5951    9.0512 C.3     1  UNL1        0.0233
     10 C          62.4230   85.9005   10.3795 C.3     1  UNL1        0.0953
     11 C          62.5042   84.4040   10.4405 C.3     1  UNL1        0.1106
     12 N          62.5598   83.7094   11.7688 N.pl3   1  UNL1       -0.3040
     13 C          62.5342   84.5113   13.0362 C.3     1  UNL1        0.1123
     14 C          62.4530   86.0078   12.9752 C.3     1  UNL1        0.1149
     15 N          62.3974   86.7024   11.6469 N.pl3   1  UNL1       -0.2777
     16 C          62.6410   82.2127   11.8297 C.ar    1  UNL1        0.0511
     17 C          63.0823   81.4359   10.6248 C.ar    1  UNL1        0.0352
     18 C          63.1635   79.9394   10.6856 C.ar    1  UNL1        0.1002
     19 N          62.8034   79.2196   11.9515 N.ar    1  UNL1       -0.2422
     20 C          62.3622   79.9964   13.1564 C.ar    1  UNL1        0.1002
     21 C          62.2810   81.4930   13.0955 C.ar    1  UNL1        0.0352
     22 C          64.6219   91.3583   12.2588 C.ar    1  UNL1        0.1024
     23 C          65.2113   92.3071   11.2577 C.ar    1  UNL1        0.0414
     24 C          66.4047   93.1385   11.6245 C.ar    1  UNL1        0.1023
     25 N          67.0087   93.0211   12.9925 N.ar    1  UNL1       -0.2224
     26 C          66.4193   92.0722   13.9937 C.ar    1  UNL1        0.1989
     27 N          65.2259   91.2408   13.6268 N.ar    1  UNL1       -0.2224
@<TRIPOS>BOND
     1    10     9    1
     2    10    11    1
     3    11    12    1
     4    12    16    1
     5    16    17   ar
     6    17    18   ar
     7    18    19   ar
     8    19    20   ar
     9    20    21   ar
    10    12    13    1
    11    13    14    1
    12    14    15    1
    13    15     1    1
    14     1     2   ar
    15     2     3   ar
    16     3    22    1
    17    22    23   ar
    18    23    24   ar
    19    24    25   ar
    20    25    26   ar
    21    26    27   ar
    22     3     4   ar
    23     4     5   ar
    24     5     6    2
    25     5     7   ar
    26     7     8    1
    27    15    10    1
    28     7     1   ar
    29    21    16   ar
    30    27    22   ar
@<TRIPOS>MOLECULE
*****
 27 30 0 0 0
SMALL
GASTEIGER

@<TRIPOS>ATOM
      1 C          59.8290   94.2924   -2.7776 C.ar    1  UNL1        0.2035
      2 N          60.3426   93.9543   -1.4094 N.ar    1  UNL1       -0.2133
      3 C          61.7855   93.5916   -1.2184 C.ar    1  UNL1        0.1065
      4 C          62.7149   93.5670   -2.3956 C.ar    1  UNL1        0.0815
      5 C          62.2013   93.9051   -3.7638 C.ar    1  UNL1        0.2646
      6 O          63.1306   93.8805   -4.9410 O.2     1  UNL1       -0.2668
      7 N          60.7583   94.2678   -3.9548 N.ar    1  UNL1       -0.2667
      8 C          60.2448   94.6059   -5.3230 C.3     1  UNL1        0.1363
      9 C          57.8216   92.1627   -3.4371 C.3     1  UNL1        0.0233
     10 C          57.3824   93.5903   -3.2983 C.3     1  UNL1        0.0953
     11 C          55.9395   93.9530   -3.4893 C.3     1  UNL1        0.1106
     12 N          55.5004   95.3805   -3.3505 N.pl3   1  UNL1       -0.3040
     13 C          56.5040   96.4453   -3.0208 C.3     1  UNL1        0.1123
     14 C          57.9469   96.0826   -2.8299 C.3     1  UNL1        0.1149
     15 N          58.3861   94.6551   -2.9686 N.pl3   1  UNL1       -0.2777
     16 C          54.0574   95.7432   -3.5415 C.ar    1  UNL1        0.0511
     17 C          53.1200   95.7324   -2.3705 C.ar    1  UNL1        0.0352
     18 C          51.6772   96.0951   -2.5615 C.ar    1  UNL1        0.1002
     19 N          51.1716   96.4686   -3.9234 N.ar    1  UNL1       -0.2422
     20 C          52.1089   96.4794   -5.0944 C.ar    1  UNL1        0.1002
     21 C          53.5519   96.1167   -4.9035 C.ar    1  UNL1        0.0352
     22 C          62.2991   93.2535    0.1498 C.ar    1  UNL1        0.1024
     23 C          61.3672   92.6942    1.1836 C.ar    1  UNL1        0.0414
     24 C          61.8808   92.3561    2.5518 C.ar    1  UNL1        0.1023
     25 N          63.3262   92.5773    2.8861 N.ar    1  UNL1       -0.2224
     26 C          64.2581   93.1365    1.8523 C.ar    1  UNL1        0.1989
     27 N          63.7446   93.4746    0.4841 N.ar    1  UNL1       -0.2224
@<TRIPOS>BOND
     1    10     9    1
     2    10    11    1
     3    11    12    1
     4    12    16    1
     5    16    17   ar
     6    17    18   ar
     7    18    19   ar
     8    19    20   ar
     9    20    21   ar
    10    12    13    1
    11    13    14    1
    12    14    15    1
    13    15     1    1
    14     1     2   ar
    15     2     3   ar
    16     3    22    1
    17    22    23   ar
    18    23    24   ar
    19    24    25   ar
    20    25    26   ar
    21    26    27   ar
    22     3     4   ar
    23     4     5   ar
    24     5     6    2
    25     5     7   ar
    26     7     8    1
    27    15    10    1
    28     7     1   ar
    29    21    16   ar
    30    27    22   ar
@<TRIPOS>MOLECULE
*****
 27 30 0 0 0
SMALL
GASTEIGER

@<TRIPOS>ATOM
      1 C          62.5843   88.2513   11.9088 C.ar    1  UNL1        0.2035
      2 N          63.7567   89.0368   12.4171 N.ar    1  UNL1       -0.2133
      3 C          63.7270   90.5361   12.3821 C.ar    1  UNL1        0.1065
      4 C          62.5247   91.2499   11.8388 C.ar    1  UNL1        0.0815
      5 C          61.3523   90.4644   11.3305 C.ar    1  UNL1        0.2646
      6 O          60.1501   91.1782   10.7873 O.2     1  UNL1       -0.2668
      7 N          61.3821   88.9651   11.3655 N.ar    1  UNL1       -0.2667
      8 C          60.2096   88.1796   10.8572 C.3     1  UNL1        0.1363
      9 C          63.8956   86.8302   14.2025 C.3     1  UNL1        0.0233
     10 C          63.2697   86.0414   13.0907 C.3     1  UNL1        0.0953
     11 C          63.2995   84.5422   13.1256 C.3     1  UNL1        0.1106
     12 N          62.6737   83.7534   12.0138 N.pl3   1  UNL1       -0.3040
     13 C          62.0181   84.4640   10.8669 C.3     1  UNL1        0.1123
     14 C          61.9883   85.9632   10.8320 C.3     1  UNL1        0.1149
     15 N          62.6141   86.7520   11.9438 N.pl3   1  UNL1       -0.2777
     16 C          62.7035   82.2541   12.0488 C.ar    1  UNL1        0.0511
     17 C          63.0929   81.4829   10.8225 C.ar    1  UNL1        0.0352
     18 C          63.1227   79.9836   10.8575 C.ar    1  UNL1        0.1002
     19 N          62.7632   79.2555   12.1187 N.ar    1  UNL1       -0.2422
     20 C          62.3738   80.0267   13.3449 C.ar    1  UNL1        0.1002
     21 C          62.3440   81.5260   13.3099 C.ar    1  UNL1        0.0352
     22 C          64.8994   91.3216   12.8904 C.ar    1  UNL1        0.1024
     23 C          65.3830   92.5224   12.1327 C.ar    1  UNL1        0.0414
     24 C          66.5554   93.3079   12.6410 C.ar    1  UNL1        0.1023
     25 N          67.2443   92.8926   13.9070 N.ar    1  UNL1       -0.2224
     26 C          66.7607   91.6918   14.6649 C.ar    1  UNL1        0.1989
     27 N          65.5883   90.9063   14.1566 N.ar    1  UNL1       -0.2224
@<TRIPOS>BOND
     1    10     9    1
     2    10    11    1
     3    11    12    1
     4    12    16    1
     5    16    17   ar
     6    17    18   ar
     7    18    19   ar
     8    19    20   ar
     9    20    21   ar
    10    12    13    1
    11    13    14    1
    12    14    15    1
    13    15     1    1
    14     1     2   ar
    15     2     3   ar
    16     3    22    1
    17    22    23   ar
    18    23    24   ar
    19    24    25   ar
    20    25    26   ar
    21    26    27   ar
    22     3     4   ar
    23     4     5   ar
    24     5     6    2
    25     5     7   ar
    26     7     8    1
    27    15    10    1
    28     7     1   ar
    29    21    16   ar
    30    27    22   ar
@<TRIPOS>MOLECULE
*****
 27 30 0 0 0
SMALL
GASTEIGER

@<TRIPOS>ATOM
      1 C          62.7832   88.2323   12.0269 C.ar    1  UNL1        0.2035
      2 N          63.1444   86.7771   12.0683 N.ar    1  UNL1       -0.2133
      3 C          62.2419   85.7619   11.4322 C.ar    1  UNL1        0.1065
      4 C          60.9781   86.2019   10.7545 C.ar    1  UNL1        0.0815
      5 C          60.6168   87.6572   10.7131 C.ar    1  UNL1        0.2646
      6 O          59.3531   88.0973   10.0355 O.2     1  UNL1       -0.2668
      7 N          61.5195   88.6724   11.3493 N.ar    1  UNL1       -0.2667
      8 C          61.1582   90.1277   11.3078 C.3     1  UNL1        0.1363
      9 C          64.1293   87.6167   14.6363 C.3     1  UNL1        0.0233
     10 C          64.3589   88.9397   13.9677 C.3     1  UNL1        0.0953
     11 C          65.2614   89.9549   14.6039 C.3     1  UNL1        0.1106
     12 N          65.4910   91.2780   13.9353 N.pl3   1  UNL1       -0.3040
     13 C          64.8179   91.5858   12.6306 C.3     1  UNL1        0.1123
     14 C          63.9154   90.5706   11.9945 C.3     1  UNL1        0.1149
     15 N          63.6858   89.2476   12.6631 N.pl3   1  UNL1       -0.2777
     16 C          66.3936   92.2932   14.5715 C.ar    1  UNL1        0.0511
     17 C          67.2117   91.9213   15.7725 C.ar    1  UNL1        0.0352
     18 C          68.1143   92.9364   16.4087 C.ar    1  UNL1        0.1002
     19 N          68.1988   94.3235   15.8439 N.ar    1  UNL1       -0.2422
     20 C          67.3807   94.6954   14.6429 C.ar    1  UNL1        0.1002
     21 C          66.4781   93.6802   14.0067 C.ar    1  UNL1        0.0352
     22 C          62.6031   84.3066   11.4736 C.ar    1  UNL1        0.1024
     23 C          63.3913   83.6973   10.3523 C.ar    1  UNL1        0.0414
     24 C          63.7525   82.2420   10.3937 C.ar    1  UNL1        0.1023
     25 N          63.3256   81.3961   11.5565 N.ar    1  UNL1       -0.2224
     26 C          62.5374   82.0054   12.6779 C.ar    1  UNL1        0.1989
     27 N          62.1761   83.4607   12.6365 N.ar    1  UNL1       -0.2224
@<TRIPOS>BOND
     1    10     9    1
     2    10    11    1
     3    11    12    1
     4    12    16    1
     5    16    17   ar
     6    17    18   ar
     7    18    19   ar
     8    19    20   ar
     9    20    21   ar
    10    12    13    1
    11    13    14    1
    12    14    15    1
    13    15     1    1
    14     1     2   ar
    15     2     3   ar
    16     3    22    1
    17    22    23   ar
    18    23    24   ar
    19    24    25   ar
    20    25    26   ar
    21    26    27   ar
    22     3     4   ar
    23     4     5   ar
    24     5     6    2
    25     5     7   ar
    26     7     8    1
    27    15    10    1
    28     7     1   ar
    29    21    16   ar
    30    27    22   ar
@<TRIPOS>MOLECULE
*****
 27 30 0 0 0
SMALL
GASTEIGER

@<TRIPOS>ATOM
      1 C          59.7456   94.0325   -2.0818 C.ar    1  UNL1        0.2035
      2 N          60.8182   94.1322   -3.1256 N.ar    1  UNL1       -0.2133
      3 C          62.2208   93.7101   -2.8024 C.ar    1  UNL1        0.1065
      4 C          62.5509   93.1883   -1.4354 C.ar    1  UNL1        0.0815
      5 C          61.4783   93.0886   -0.3915 C.ar    1  UNL1        0.2646
      6 O          61.8083   92.5668    0.9755 O.2     1  UNL1       -0.2668
      7 N          60.0756   93.5107   -0.7147 N.ar    1  UNL1       -0.2667
      8 C          59.0030   93.4110    0.3291 C.3     1  UNL1        0.1363
      9 C          57.8661   92.1045   -3.4048 C.3     1  UNL1        0.0233
     10 C          57.4032   93.4906   -3.0665 C.3     1  UNL1        0.0953
     11 C          56.0006   93.9128   -3.3897 C.3     1  UNL1        0.1106
     12 N          55.5378   95.2989   -3.0514 N.pl3   1  UNL1       -0.3040
     13 C          56.4775   96.2628   -2.3899 C.3     1  UNL1        0.1123
     14 C          57.8801   95.8407   -2.0667 C.3     1  UNL1        0.1149
     15 N          58.3429   94.4546   -2.4050 N.pl3   1  UNL1       -0.2777
     16 C          54.1351   95.7210   -3.3746 C.ar    1  UNL1        0.0511
     17 C          53.0988   95.7721   -2.2913 C.ar    1  UNL1        0.0352
     18 C          51.6962   96.1942   -2.6145 C.ar    1  UNL1        0.1002
     19 N          51.3298   96.5652   -4.0210 N.ar    1  UNL1       -0.2422
     20 C          52.3661   96.5141   -5.1043 C.ar    1  UNL1        0.1002
     21 C          53.7688   96.0920   -4.7811 C.ar    1  UNL1        0.0352
     22 C          63.2934   93.8098   -3.8463 C.ar    1  UNL1        0.1024
     23 C          64.0406   92.5813   -4.2736 C.ar    1  UNL1        0.0414
     24 C          65.1132   92.6810   -5.3174 C.ar    1  UNL1        0.1023
     25 N          65.4386   94.0092   -5.9340 N.ar    1  UNL1       -0.2224
     26 C          64.6913   95.2377   -5.5067 C.ar    1  UNL1        0.1989
     27 N          63.6188   95.1380   -4.4629 N.ar    1  UNL1       -0.2224
@<TRIPOS>BOND
     1    10     9    1
     2    10    11    1
     3    11    12    1
     4    12    16    1
     5    16    17   ar
     6    17    18   ar
     7    18    19   ar
     8    19    20   ar
     9    20    21   ar
    10    12    13    1
    11    13    14    1
    12    14    15    1
    13    15     1    1
    14     1     2   ar
    15     2     3   ar
    16     3    22    1
    17    22    23   ar
    18    23    24   ar
    19    24    25   ar
    20    25    26   ar
    21    26    27   ar
    22     3     4   ar
    23     4     5   ar
    24     5     6    2
    25     5     7   ar
    26     7     8    1
    27    15    10    1
    28     7     1   ar
    29    21    16   ar
    30    27    22   ar
@<TRIPOS>MOLECULE
*****
 27 30 0 0 0
SMALL
GASTEIGER

@<TRIPOS>ATOM
      1 C          62.1201   88.9872   11.5770 C.ar    1  UNL1        0.2035
      2 N          62.4034   88.0234   10.4631 N.ar    1  UNL1       -0.2133
      3 C          61.2735   87.3037    9.7885 C.ar    1  UNL1        0.1065
      4 C          59.8601   87.5477   10.2277 C.ar    1  UNL1        0.0815
      5 C          59.5768   88.5115   11.3416 C.ar    1  UNL1        0.2646
      6 O          58.1635   88.7556   11.7809 O.2     1  UNL1       -0.2668
      7 N          60.7068   89.2313   12.0163 N.ar    1  UNL1       -0.2667
      8 C          60.4234   90.1951   13.1302 C.3     1  UNL1        0.1363
      9 C          63.2681   91.4686   10.3420 C.3     1  UNL1        0.0233
     10 C          63.8241   90.9476   11.6341 C.3     1  UNL1        0.0953
     11 C          64.9541   91.6673   12.3087 C.3     1  UNL1        0.1106
     12 N          65.5100   91.1464   13.6008 N.pl3   1  UNL1       -0.3040
     13 C          64.9361   89.9058   14.2183 C.3     1  UNL1        0.1123
     14 C          63.8061   89.1861   13.5437 C.3     1  UNL1        0.1149
     15 N          63.2501   89.7070   12.2516 N.pl3   1  UNL1       -0.2777
     16 C          66.6401   91.8662   14.2754 C.ar    1  UNL1        0.0511
     17 C          68.0144   91.8340   13.6753 C.ar    1  UNL1        0.0352
     18 C          69.1444   92.5537   14.3498 C.ar    1  UNL1        0.1002
     19 N          68.9001   93.3057   15.6246 N.ar    1  UNL1       -0.2422
     20 C          67.5258   93.3379   16.2247 C.ar    1  UNL1        0.1002
     21 C          66.3957   92.6181   15.5501 C.ar    1  UNL1        0.0352
     22 C          61.5568   86.3399    8.6746 C.ar    1  UNL1        0.1024
     23 C          62.9009   85.6813    8.5763 C.ar    1  UNL1        0.0414
     24 C          63.1842   84.7174    7.4624 C.ar    1  UNL1        0.1023
     25 N          62.1235   84.4122    6.4468 N.ar    1  UNL1       -0.2224
     26 C          60.7793   85.0708    6.5449 C.ar    1  UNL1        0.1989
     27 N          60.4960   86.0346    7.6588 N.ar    1  UNL1       -0.2224
@<TRIPOS>BOND
     1    10     9    1
     2    10    11    1
     3    11    12    1
     4    12    16    1
     5    16    17   ar
     6    17    18   ar
     7    18    19   ar
     8    19    20   ar
     9    20    21   ar
    10    12    13    1
    11    13    14    1
    12    14    15    1
    13    15     1    1
    14     1     2   ar
    15     2     3   ar
    16     3    22    1
    17    22    23   ar
    18    23    24   ar
    19    24    25   ar
    20    25    26   ar
    21    26    27   ar
    22     3     4   ar
    23     4     5   ar
    24     5     6    2
    25     5     7   ar
    26     7     8    1
    27    15    10    1
    28     7     1   ar
    29    21    16   ar
    30    27    22   ar
