@<TRIPOS>MOLECULE
*****
 27 31 0 0 0
SMALL
GASTEIGER

@<TRIPOS>ATOM
      1 C          64.1713   89.5145   14.1252 C.ar    1  UNL1        0.0534
      2 C          63.4801   89.6390   12.7998 C.ar    1  UNL1        0.0045
      3 C          63.7844   90.8010   11.9015 C.ar    1  UNL1        0.0001
      4 C          64.7799   91.8386   12.3287 C.ar    1  UNL1       -0.0002
      5 C          65.0842   93.0007   11.4303 C.ar    1  UNL1       -0.0017
      6 C          66.0797   94.0383   11.8574 C.ar    1  UNL1        0.0071
      7 C          66.7709   93.9138   13.1829 C.ar    1  UNL1       -0.0017
      8 C          66.4666   92.7517   14.0812 C.ar    1  UNL1       -0.0002
      9 C          65.4711   91.7141   13.6541 C.ar    1  UNL1        0.0001
     10 C          65.1668   90.5520   14.5523 C.ar    1  UNL1        0.0045
     11 C          66.3840   95.2004   10.9592 C.3     1  UNL1        0.1432
     12 O          65.6144   95.9872   11.9782 O.3     1  UNL1       -0.3770
     13 C          66.5274   96.5270   10.2739 C.3     1  UNL1        0.0614
     14 C          67.3221   96.3171    9.0192 C.3     1  UNL1        0.1105
     15 N          67.6699   94.8607    8.9289 N.ar    1  UNL1       -0.3101
     16 C          68.3759   93.8309    8.0977 C.ar    1  UNL1        0.1784
     17 N          68.2325   92.5043    8.7829 N.ar    1  UNL1       -0.2226
     18 C          67.4378   92.7143   10.0376 C.ar    1  UNL1        0.1160
     19 C          67.0901   94.1705   10.1279 C.ar    1  UNL1        0.0859
     20 H          65.5857   96.9197   11.7125 H       1  UNL1        0.2112
     21 O          64.3001   86.9700   14.6344 O.2     1  UNL1       -0.2701
     22 C          63.8670   88.3524   15.0236 C.2     1  UNL1        0.2458
     23 N          63.1295   88.5726   16.3110 N.am    1  UNL1       -0.3025
     24 H          62.8452   89.4799   16.5664 H       1  UNL1        0.1497
     25 C          62.8252   87.4105   17.2094 C.3     1  UNL1        0.0720
     26 C          62.3958   85.9845   17.3883 C.3     1  UNL1        0.0213
     27 C          62.7276   86.8237   18.5864 C.3     1  UNL1        0.0213
@<TRIPOS>BOND
     1    21    22    2
     2    22    23   am
     3    23    25    1
     4    25    26    1
     5    26    27    1
     6    22     1    1
     7     1     2   ar
     8     2     3   ar
     9     3     4   ar
    10     4     5   ar
    11     5     6   ar
    12     6    11    1
    13    11    12    1
    14    11    13    1
    15    13    14    1
    16    14    15    1
    17    15    16   ar
    18    16    17   ar
    19    17    18   ar
    20    18    19   ar
    21     6     7   ar
    22     7     8   ar
    23     8     9   ar
    24     9    10   ar
    25    27    25    1
    26    10     1   ar
    27     9     4   ar
    28    19    11    1
    29    19    15   ar
    30    23    24    1
    31    12    20    1
@<TRIPOS>MOLECULE
*****
 27 31 0 0 0
SMALL
GASTEIGER

@<TRIPOS>ATOM
      1 C          64.2171   89.1406   13.6171 C.ar    1  UNL1        0.0534
      2 C          63.3275   88.7949   12.4600 C.ar    1  UNL1        0.0045
      3 C          62.8528   87.3842   12.2743 C.ar    1  UNL1        0.0001
      4 C          63.2678   86.3192   13.2457 C.ar    1  UNL1       -0.0002
      5 C          62.7930   84.9084   13.0599 C.ar    1  UNL1       -0.0017
      6 C          63.2080   83.8434   14.0313 C.ar    1  UNL1        0.0071
      7 C          64.0977   84.1892   15.1885 C.ar    1  UNL1       -0.0017
      8 C          64.5724   85.5999   15.3742 C.ar    1  UNL1       -0.0002
      9 C          64.1574   86.6649   14.4028 C.ar    1  UNL1        0.0001
     10 C          64.6321   88.0756   14.5885 C.ar    1  UNL1        0.0045
     11 C          62.7333   82.4327   13.8456 C.3     1  UNL1        0.1432
     12 O          62.1899   82.5996   15.2337 O.3     1  UNL1       -0.3770
     13 C          62.1450   81.0569   13.9501 C.3     1  UNL1        0.0614
     14 C          62.4241   80.3346   12.6654 C.3     1  UNL1        0.1105
     15 N          63.1849   81.2641   11.7668 N.ar    1  UNL1       -0.3101
     16 C          63.8275   81.3922   10.4175 C.ar    1  UNL1        0.1784
     17 N          64.4158   82.7680   10.3131 N.ar    1  UNL1       -0.2226
     18 C          64.1367   83.4902   11.5978 C.ar    1  UNL1        0.1160
     19 C          63.3760   82.5608   12.4963 C.ar    1  UNL1        0.0859
     20 H          61.7470   81.7814   15.5080 H       1  UNL1        0.2112
     21 O          63.9046   91.6898   13.2247 O.2     1  UNL1       -0.2701
     22 C          64.6918   90.5514   13.8029 C.2     1  UNL1        0.2458
     23 N          65.9537   90.8236   14.5667 N.am    1  UNL1       -0.3025
     24 H          66.4704   90.0764   14.9461 H       1  UNL1        0.1497
     25 C          66.4284   92.2344   14.7525 C.3     1  UNL1        0.0720
     26 C          66.5222   93.6487   14.2617 C.3     1  UNL1        0.0213
     27 C          67.1569   93.2635   15.5650 C.3     1  UNL1        0.0213
@<TRIPOS>BOND
     1    21    22    2
     2    22    23   am
     3    23    25    1
     4    25    26    1
     5    26    27    1
     6    22     1    1
     7     1     2   ar
     8     2     3   ar
     9     3     4   ar
    10     4     5   ar
    11     5     6   ar
    12     6    11    1
    13    11    12    1
    14    11    13    1
    15    13    14    1
    16    14    15    1
    17    15    16   ar
    18    16    17   ar
    19    17    18   ar
    20    18    19   ar
    21     6     7   ar
    22     7     8   ar
    23     8     9   ar
    24     9    10   ar
    25    27    25    1
    26    10     1   ar
    27     9     4   ar
    28    19    11    1
    29    19    15   ar
    30    23    24    1
    31    12    20    1
@<TRIPOS>MOLECULE
*****
 27 31 0 0 0
SMALL
GASTEIGER

@<TRIPOS>ATOM
      1 C          65.2779   92.2035   12.6777 C.ar    1  UNL1        0.0534
      2 C          65.4054   92.5843   11.2325 C.ar    1  UNL1        0.0045
      3 C          64.4444   92.0296   10.2232 C.ar    1  UNL1        0.0001
      4 C          63.3559   91.0941   10.6591 C.ar    1  UNL1       -0.0002
      5 C          62.3949   90.5394    9.6496 C.ar    1  UNL1       -0.0017
      6 C          61.3064   89.6039   10.0855 C.ar    1  UNL1        0.0071
      7 C          61.1789   89.2231   11.5308 C.ar    1  UNL1       -0.0017
      8 C          62.1399   89.7777   12.5401 C.ar    1  UNL1       -0.0002
      9 C          63.2284   90.7133   12.1043 C.ar    1  UNL1        0.0001
     10 C          64.1894   91.2680   13.1136 C.ar    1  UNL1        0.0045
     11 C          60.3455   89.0492    9.0762 C.3     1  UNL1        0.1432
     12 O          59.6895   90.3929    9.1952 O.3     1  UNL1       -0.3770
     13 C          59.2473   88.7754    8.0917 C.3     1  UNL1        0.0614
     14 C          59.4255   87.3784    7.5752 C.3     1  UNL1        0.1105
     15 N          60.6337   86.7888    8.2405 N.ar    1  UNL1       -0.3101
     16 C          61.4906   85.5610    8.3324 C.ar    1  UNL1        0.1784
     17 N          62.5886   85.8348    9.3168 N.ar    1  UNL1       -0.2226
     18 C          62.4105   87.2318    9.8333 C.ar    1  UNL1        0.1160
     19 C          61.2023   87.8214    9.1681 C.ar    1  UNL1        0.0859
     20 H          58.9170   90.4286    8.6097 H       1  UNL1        0.2112
     21 O          66.1820   94.2106   14.0577 O.2     1  UNL1       -0.2701
     22 C          66.2389   92.7582   13.6872 C.2     1  UNL1        0.2458
     23 N          67.2567   91.8605   14.3260 N.am    1  UNL1       -0.3025
     24 H          67.2940   90.9072   14.0828 H       1  UNL1        0.1497
     25 C          68.2177   92.4152   15.3354 C.3     1  UNL1        0.0720
     26 C          69.0714   93.5437   15.8329 C.3     1  UNL1        0.0213
     27 C          69.0284   92.2474   16.5863 C.3     1  UNL1        0.0213
@<TRIPOS>BOND
     1    21    22    2
     2    22    23   am
     3    23    25    1
     4    25    26    1
     5    26    27    1
     6    22     1    1
     7     1     2   ar
     8     2     3   ar
     9     3     4   ar
    10     4     5   ar
    11     5     6   ar
    12     6    11    1
    13    11    12    1
    14    11    13    1
    15    13    14    1
    16    14    15    1
    17    15    16   ar
    18    16    17   ar
    19    17    18   ar
    20    18    19   ar
    21     6     7   ar
    22     7     8   ar
    23     8     9   ar
    24     9    10   ar
    25    27    25    1
    26    10     1   ar
    27     9     4   ar
    28    19    11    1
    29    19    15   ar
    30    23    24    1
    31    12    20    1
@<TRIPOS>MOLECULE
*****
 27 31 0 0 0
SMALL
GASTEIGER

@<TRIPOS>ATOM
      1 C          62.3006   89.6547   10.4213 C.ar    1  UNL1        0.0534
      2 C          62.8107   90.9915    9.9712 C.ar    1  UNL1        0.0045
      3 C          63.7191   91.7862   10.8618 C.ar    1  UNL1        0.0001
      4 C          64.1174   91.2441   12.2025 C.ar    1  UNL1       -0.0002
      5 C          65.0259   92.0388   13.0931 C.ar    1  UNL1       -0.0017
      6 C          65.4241   91.4967   14.4338 C.ar    1  UNL1        0.0071
      7 C          64.9140   90.1598   14.8838 C.ar    1  UNL1       -0.0017
      8 C          64.0056   89.3651   13.9932 C.ar    1  UNL1       -0.0002
      9 C          63.6073   89.9073   12.6525 C.ar    1  UNL1        0.0001
     10 C          62.6989   89.1126   11.7619 C.ar    1  UNL1        0.0045
     11 C          66.3326   92.2914   15.3244 C.3     1  UNL1        0.1432
     12 O          65.1144   92.4171   16.1906 O.3     1  UNL1       -0.3770
     13 C          66.9863   93.1124   16.3961 C.3     1  UNL1        0.0614
     14 C          68.4186   93.3279   16.0060 C.3     1  UNL1        0.1105
     15 N          68.6501   92.6402   14.6932 N.ar    1  UNL1       -0.3101
     16 C          69.6783   92.3483   13.6408 C.ar    1  UNL1        0.1784
     17 N          69.0245   91.5274   12.5691 N.ar    1  UNL1       -0.2226
     18 C          67.5923   91.3118   12.9592 C.ar    1  UNL1        0.1160
     19 C          67.3608   91.9995   14.2719 C.ar    1  UNL1        0.0859
     20 H          65.3307   92.9394   16.9788 H       1  UNL1        0.2112
     21 O          60.1807   89.5061    8.9265 O.2     1  UNL1       -0.2701
     22 C          61.3921   88.8599    9.5306 C.2     1  UNL1        0.2458
     23 N          61.6951   87.4191    9.2442 N.am    1  UNL1       -0.3025
     24 H          62.4902   86.9950    9.6407 H       1  UNL1        0.1497
     25 C          60.7866   86.6243    8.3536 C.3     1  UNL1        0.0720
     26 C          59.4275   86.3845    7.7661 C.3     1  UNL1        0.0213
     27 C          60.5723   85.4876    7.3986 C.3     1  UNL1        0.0213
@<TRIPOS>BOND
     1    21    22    2
     2    22    23   am
     3    23    25    1
     4    25    26    1
     5    26    27    1
     6    22     1    1
     7     1     2   ar
     8     2     3   ar
     9     3     4   ar
    10     4     5   ar
    11     5     6   ar
    12     6    11    1
    13    11    12    1
    14    11    13    1
    15    13    14    1
    16    14    15    1
    17    15    16   ar
    18    16    17   ar
    19    17    18   ar
    20    18    19   ar
    21     6     7   ar
    22     7     8   ar
    23     8     9   ar
    24     9    10   ar
    25    27    25    1
    26    10     1   ar
    27     9     4   ar
    28    19    11    1
    29    19    15   ar
    30    23    24    1
    31    12    20    1
@<TRIPOS>MOLECULE
*****
 27 31 0 0 0
SMALL
GASTEIGER

@<TRIPOS>ATOM
      1 C          62.3609   88.9339   10.8500 C.ar    1  UNL1        0.0534
      2 C          62.6402   88.0912   12.0591 C.ar    1  UNL1        0.0045
      3 C          63.5153   88.6205   13.1563 C.ar    1  UNL1        0.0001
      4 C          64.1112   89.9925   13.0444 C.ar    1  UNL1       -0.0002
      5 C          64.9864   90.5219   14.1416 C.ar    1  UNL1       -0.0017
      6 C          65.5824   91.8939   14.0297 C.ar    1  UNL1        0.0071
      7 C          65.3031   92.7365   12.8206 C.ar    1  UNL1       -0.0017
      8 C          64.4279   92.2072   11.7234 C.ar    1  UNL1       -0.0002
      9 C          63.8320   90.8352   11.8353 C.ar    1  UNL1        0.0001
     10 C          62.9569   90.3058   10.7381 C.ar    1  UNL1        0.0045
     11 C          66.4575   92.4232   15.1269 C.3     1  UNL1        0.1432
     12 O          65.1605   92.6109   15.8566 O.3     1  UNL1       -0.3770
     13 C          67.0615   92.9918   16.3767 C.3     1  UNL1        0.0614
     14 C          68.5489   93.0448   16.1900 C.3     1  UNL1        0.1105
     15 N          68.8642   92.5090   14.8249 N.ar    1  UNL1       -0.3101
     16 C          69.9783   92.2107   13.8659 C.ar    1  UNL1        0.1784
     17 N          69.3743   91.6421   12.6162 N.ar    1  UNL1       -0.2226
     18 C          67.8870   91.5891   12.8028 C.ar    1  UNL1        0.1160
     19 C          67.5716   92.1248   14.1679 C.ar    1  UNL1        0.0859
     20 H          65.3343   92.9879   16.7332 H       1  UNL1        0.2112
     21 O          60.5930   89.3375    8.9895 O.2     1  UNL1       -0.2701
     22 C          61.4858   88.4045    9.7527 C.2     1  UNL1        0.2458
     23 N          61.5033   86.9423    9.4188 N.am    1  UNL1       -0.3025
     24 H          62.0893   86.3300    9.9197 H       1  UNL1        0.1497
     25 C          60.6281   86.4130    8.3215 C.3     1  UNL1        0.0720
     26 C          59.3376   86.4486    7.5578 C.3     1  UNL1        0.0213
     27 C          60.4028   85.4606    7.1847 C.3     1  UNL1        0.0213
@<TRIPOS>BOND
     1    21    22    2
     2    22    23   am
     3    23    25    1
     4    25    26    1
     5    26    27    1
     6    22     1    1
     7     1     2   ar
     8     2     3   ar
     9     3     4   ar
    10     4     5   ar
    11     5     6   ar
    12     6    11    1
    13    11    12    1
    14    11    13    1
    15    13    14    1
    16    14    15    1
    17    15    16   ar
    18    16    17   ar
    19    17    18   ar
    20    18    19   ar
    21     6     7   ar
    22     7     8   ar
    23     8     9   ar
    24     9    10   ar
    25    27    25    1
    26    10     1   ar
    27     9     4   ar
    28    19    11    1
    29    19    15   ar
    30    23    24    1
    31    12    20    1
@<TRIPOS>MOLECULE
*****
 27 31 0 0 0
SMALL
GASTEIGER

@<TRIPOS>ATOM
      1 C          62.2925   87.0963   10.2026 C.ar    1  UNL1        0.0534
      2 C          62.6794   86.2940   11.4095 C.ar    1  UNL1        0.0045
      3 C          63.2005   86.9855   12.6343 C.ar    1  UNL1        0.0001
      4 C          63.3347   88.4794   12.6523 C.ar    1  UNL1       -0.0002
      5 C          63.8558   89.1709   13.8772 C.ar    1  UNL1       -0.0017
      6 C          63.9900   90.6648   13.8951 C.ar    1  UNL1        0.0071
      7 C          63.6030   91.4671   12.6882 C.ar    1  UNL1       -0.0017
      8 C          63.0820   90.7756   11.4634 C.ar    1  UNL1       -0.0002
      9 C          62.9478   89.2817   11.4454 C.ar    1  UNL1        0.0001
     10 C          62.4267   88.5902   10.2206 C.ar    1  UNL1        0.0045
     11 C          64.5110   91.3563   15.1200 C.3     1  UNL1        0.1432
     12 O          63.2247   90.8929   15.7368 O.3     1  UNL1       -0.3770
     13 C          64.7631   91.9510   16.4738 C.3     1  UNL1        0.0614
     14 C          66.0964   92.6373   16.4376 C.3     1  UNL1        0.1105
     15 N          66.6684   92.4669   15.0614 N.ar    1  UNL1       -0.3101
     16 C          67.8458   92.7857   14.1884 C.ar    1  UNL1        0.1784
     17 N          67.5937   92.1910   12.8347 N.ar    1  UNL1       -0.2226
     18 C          66.2604   91.5047   12.8709 C.ar    1  UNL1        0.1160
     19 C          65.6884   91.6751   14.2470 C.ar    1  UNL1        0.0859
     20 H          63.1844   91.1873   16.6602 H       1  UNL1        0.2112
     21 O          60.3306   86.5538    8.5881 O.2     1  UNL1       -0.2701
     22 C          61.7714   86.4048    8.9777 C.2     1  UNL1        0.2458
     23 N          62.6911   85.5642    8.1425 N.am    1  UNL1       -0.3025
     24 H          63.6368   85.4664    8.3983 H       1  UNL1        0.1497
     25 C          62.1700   84.8727    6.9176 C.3     1  UNL1        0.0720
     26 C          61.0728   84.1333    6.2111 C.3     1  UNL1        0.0213
     27 C          62.3647   84.4144    5.5027 C.3     1  UNL1        0.0213
@<TRIPOS>BOND
     1    21    22    2
     2    22    23   am
     3    23    25    1
     4    25    26    1
     5    26    27    1
     6    22     1    1
     7     1     2   ar
     8     2     3   ar
     9     3     4   ar
    10     4     5   ar
    11     5     6   ar
    12     6    11    1
    13    11    12    1
    14    11    13    1
    15    13    14    1
    16    14    15    1
    17    15    16   ar
    18    16    17   ar
    19    17    18   ar
    20    18    19   ar
    21     6     7   ar
    22     7     8   ar
    23     8     9   ar
    24     9    10   ar
    25    27    25    1
    26    10     1   ar
    27     9     4   ar
    28    19    11    1
    29    19    15   ar
    30    23    24    1
    31    12    20    1
@<TRIPOS>MOLECULE
*****
 27 31 0 0 0
SMALL
GASTEIGER

@<TRIPOS>ATOM
      1 C          64.4355   89.4815   14.5264 C.ar    1  UNL1        0.0534
      2 C          65.4597   90.3223   15.2292 C.ar    1  UNL1        0.0045
      3 C          66.0057   91.5509   14.5642 C.ar    1  UNL1        0.0001
      4 C          65.5275   91.9387   13.1963 C.ar    1  UNL1       -0.0002
      5 C          66.0736   93.1674   12.5313 C.ar    1  UNL1       -0.0017
      6 C          65.5954   93.5552   11.1635 C.ar    1  UNL1        0.0071
      7 C          64.5712   92.7143   10.4607 C.ar    1  UNL1       -0.0017
      8 C          64.0251   91.4857   11.1257 C.ar    1  UNL1       -0.0002
      9 C          64.5033   91.0979   12.4935 C.ar    1  UNL1        0.0001
     10 C          63.9573   89.8693   13.1586 C.ar    1  UNL1        0.0045
     11 C          66.1414   94.7838   10.4985 C.3     1  UNL1        0.1432
     12 O          65.1356   95.5003   11.3499 O.3     1  UNL1       -0.3770
     13 C          66.4772   96.1623   10.0114 C.3     1  UNL1        0.0614
     14 C          67.5763   96.0409    8.9980 C.3     1  UNL1        0.1105
     15 N          67.9200   94.5874    8.8586 N.ar    1  UNL1       -0.3101
     16 C          68.8117   93.6141    8.1462 C.ar    1  UNL1        0.1784
     17 N          68.4759   92.2357    8.6332 N.ar    1  UNL1       -0.2226
     18 C          67.3768   92.3571    9.6467 C.ar    1  UNL1        0.1160
     19 C          67.0331   93.8105    9.7860 C.ar    1  UNL1        0.0859
     20 H          65.1891   96.4538   11.1803 H       1  UNL1        0.2112
     21 O          63.0972   88.3755   16.4592 O.2     1  UNL1       -0.2701
     22 C          63.8894   88.2528   15.1914 C.2     1  UNL1        0.2458
     23 N          64.1356   86.9015   14.5886 N.am    1  UNL1       -0.3025
     24 H          64.6556   86.8210   13.7565 H       1  UNL1        0.1497
     25 C          63.5895   85.6728   15.2537 C.3     1  UNL1        0.0720
     26 C          63.6985   84.2113   15.5729 C.3     1  UNL1        0.0213
     27 C          62.5348   85.0063   16.0863 C.3     1  UNL1        0.0213
@<TRIPOS>BOND
     1    21    22    2
     2    22    23   am
     3    23    25    1
     4    25    26    1
     5    26    27    1
     6    22     1    1
     7     1     2   ar
     8     2     3   ar
     9     3     4   ar
    10     4     5   ar
    11     5     6   ar
    12     6    11    1
    13    11    12    1
    14    11    13    1
    15    13    14    1
    16    14    15    1
    17    15    16   ar
    18    16    17   ar
    19    17    18   ar
    20    18    19   ar
    21     6     7   ar
    22     7     8   ar
    23     8     9   ar
    24     9    10   ar
    25    27    25    1
    26    10     1   ar
    27     9     4   ar
    28    19    11    1
    29    19    15   ar
    30    23    24    1
    31    12    20    1
@<TRIPOS>MOLECULE
*****
 27 31 0 0 0
SMALL
GASTEIGER

@<TRIPOS>ATOM
      1 C          63.9676   88.5905   13.9435 C.ar    1  UNL1        0.0534
      2 C          63.1569   88.5709   12.6816 C.ar    1  UNL1        0.0045
      3 C          62.9091   87.2742   11.9696 C.ar    1  UNL1        0.0001
      4 C          63.4721   85.9971   12.5193 C.ar    1  UNL1       -0.0002
      5 C          63.2242   84.7003   11.8071 C.ar    1  UNL1       -0.0017
      6 C          63.7872   83.4233   12.3569 C.ar    1  UNL1        0.0071
      7 C          64.5979   83.4430   13.6188 C.ar    1  UNL1       -0.0017
      8 C          64.8457   84.7397   14.3309 C.ar    1  UNL1       -0.0002
      9 C          64.2828   86.0167   13.7812 C.ar    1  UNL1        0.0001
     10 C          64.5305   87.3134   14.4933 C.ar    1  UNL1        0.0045
     11 C          63.5394   82.1266   11.6448 C.3     1  UNL1        0.1432
     12 O          64.4553   82.7033   10.6063 O.3     1  UNL1       -0.3770
     13 C          63.4831   80.9504   10.7156 C.3     1  UNL1        0.0614
     14 C          62.5842   79.9179   11.3287 C.3     1  UNL1        0.1105
     15 N          62.0849   80.4559   12.6369 N.ar    1  UNL1       -0.3101
     16 C          61.2208   80.1503   13.8243 C.ar    1  UNL1        0.1784
     17 N          61.2771   81.3264   14.7534 N.ar    1  UNL1       -0.2226
     18 C          62.1760   82.3589   14.1403 C.ar    1  UNL1        0.1160
     19 C          62.6753   81.8210   12.8322 C.ar    1  UNL1        0.0859
     20 H          64.5595   82.0696    9.8793 H       1  UNL1        0.2112
     21 O          63.1377   90.4950   15.5037 O.2     1  UNL1       -0.2701
     22 C          64.2154   89.8872   14.6557 C.2     1  UNL1        0.2458
     23 N          65.5409   90.5762   14.5198 N.am    1  UNL1       -0.3025
     24 H          66.2482   90.1773   13.9631 H       1  UNL1        0.1497
     25 C          65.7887   91.8729   15.2319 C.3     1  UNL1        0.0720
     26 C          65.5772   92.7633   16.4204 C.3     1  UNL1        0.0213
     27 C          66.4294   93.2285   15.2770 C.3     1  UNL1        0.0213
@<TRIPOS>BOND
     1    21    22    2
     2    22    23   am
     3    23    25    1
     4    25    26    1
     5    26    27    1
     6    22     1    1
     7     1     2   ar
     8     2     3   ar
     9     3     4   ar
    10     4     5   ar
    11     5     6   ar
    12     6    11    1
    13    11    12    1
    14    11    13    1
    15    13    14    1
    16    14    15    1
    17    15    16   ar
    18    16    17   ar
    19    17    18   ar
    20    18    19   ar
    21     6     7   ar
    22     7     8   ar
    23     8     9   ar
    24     9    10   ar
    25    27    25    1
    26    10     1   ar
    27     9     4   ar
    28    19    11    1
    29    19    15   ar
    30    23    24    1
    31    12    20    1
