@<TRIPOS>MOLECULE
*****
 38 42 0 0 0
SMALL
GASTEIGER

@<TRIPOS>ATOM
      1 C          61.0912   90.7195   10.8814 C.3     1  UNL1        0.0553
      2 C          61.7605   89.5497   11.5398 C.ar    1  UNL1        0.0935
      3 N          61.5914   88.1085   11.1599 N.ar    1  UNL1       -0.1727
      4 N          62.4429   87.2838   12.0791 N.ar    1  UNL1       -0.2558
      5 C          63.1383   88.2153   13.0271 C.ar    1  UNL1        0.0704
      6 C          64.0886   87.8165   14.1169 C.3     1  UNL1        0.0531
      7 C          62.7166   89.6157   12.6938 C.ar    1  UNL1        0.0792
      8 C          62.5757   85.7899   12.0546 C.3     1  UNL1        0.1083
      9 C          62.4915   85.0084   13.3322 C.3     1  UNL1        0.0459
     10 C          62.6243   83.5144   13.3077 C.3     1  UNL1        0.0954
     11 N          62.8413   82.8021   12.0056 N.am    1  UNL1       -0.2783
     12 C          62.9741   81.3081   11.9811 C.2     1  UNL1        0.2397
     13 O          63.1911   80.5957   10.6790 O.2     1  UNL1       -0.2734
     14 C          62.9255   83.5836   10.7280 C.3     1  UNL1        0.0954
     15 C          62.7927   85.0775   10.7526 C.3     1  UNL1        0.0459
     16 C          62.8898   80.5267   13.2587 C.3     1  UNL1        0.1286
     17 C          61.5801   79.9387   13.6932 C.3     1  UNL1        0.0267
     18 N          64.1154   80.3331   14.1017 N.3     1  UNL1       -0.3150
     19 H          63.8771   79.7824   14.9265 H       1  UNL1        0.1192
     20 H          64.4752   81.2422   14.3922 H       1  UNL1        0.1192
     21 N          63.1711   90.8632   13.3919 N.pl3   1  UNL1       -0.2806
     22 H          62.5179   91.4294   13.8631 H       1  UNL1        0.1551
     23 C          64.6208   91.2480   13.3721 C.ar    1  UNL1        0.2208
     24 N          65.4787   91.0014   14.5776 N.ar    1  UNL1       -0.2111
     25 C          66.9283   91.3862   14.5578 C.ar    1  UNL1        0.1147
     26 C          67.5201   92.0176   13.3326 C.ar    1  UNL1        0.0946
     27 CL         68.9697   92.4024   13.3128 Cl      1  UNL1       -0.0790
     28 C          66.6621   92.2642   12.1270 C.ar    1  UNL1        0.0992
     29 N          65.2125   91.8794   12.1469 N.ar    1  UNL1       -0.2126
     30 C          67.2538   92.8955   10.9018 C.ar    1  UNL1        0.0572
     31 C          68.2636   92.2684    9.9869 C.ar    1  UNL1        0.1235
     32 N          68.5735   93.2502    8.8960 N.ar    1  UNL1       -0.1634
     33 N          67.7552   94.4841    9.1367 N.ar    1  UNL1       -0.2281
     34 C          67.6475   95.7790    8.3872 C.ar    1  UNL1        0.1004
     35 C          66.7241   96.8546    8.8774 C.ar    1  UNL1        0.0207
     36 C          65.9085   96.6354   10.1171 C.ar    1  UNL1        0.0031
     37 C          66.0163   95.3406   10.8665 C.ar    1  UNL1        0.0193
     38 C          66.9396   94.2649   10.3763 C.ar    1  UNL1        0.0858
@<TRIPOS>BOND
     1     1     2    1
     2     2     3   ar
     3     3     4   ar
     4     4     8    1
     5     8     9    1
     6     9    10    1
     7    10    11    1
     8    11    12   am
     9    12    13    2
    10    12    16    1
    11    16    17    1
    12    16    18    1
    13    11    14    1
    14    14    15    1
    15     4     5   ar
    16     5     6    1
    17     5     7   ar
    18     7    21    1
    19    21    23    1
    20    23    24   ar
    21    24    25   ar
    22    25    26   ar
    23    26    27    1
    24    26    28   ar
    25    28    30    1
    26    30    31   ar
    27    31    32   ar
    28    32    33   ar
    29    33    34   ar
    30    34    35   ar
    31    35    36   ar
    32    36    37   ar
    33    37    38   ar
    34    28    29   ar
    35     7     2   ar
    36    29    23   ar
    37    15     8    1
    38    38    30   ar
    39    38    33   ar
    40    18    19    1
    41    18    20    1
    42    21    22    1
@<TRIPOS>MOLECULE
*****
 38 42 0 0 0
SMALL
GASTEIGER

@<TRIPOS>ATOM
      1 C          62.4017   86.7185   18.3670 C.3     1  UNL1        0.0553
      2 C          63.0403   87.0800   17.0588 C.ar    1  UNL1        0.0935
      3 N          63.1786   88.4643   16.4979 N.ar    1  UNL1       -0.1727
      4 N          63.8767   88.3606   15.1742 N.ar    1  UNL1       -0.2558
      5 C          64.1697   86.9122   14.9170 C.ar    1  UNL1        0.0704
      6 C          64.8586   86.3533   13.7075 C.3     1  UNL1        0.0531
      7 C          63.6528   86.1207   16.0817 C.ar    1  UNL1        0.0792
      8 C          64.2211   89.5044   14.2670 C.3     1  UNL1        0.1083
      9 C          65.3162   90.4574   14.6444 C.3     1  UNL1        0.0459
     10 C          65.6607   91.6014   13.7372 C.3     1  UNL1        0.0954
     11 N          64.9100   91.7921   12.4527 N.am    1  UNL1       -0.2783
     12 C          65.2545   92.9360   11.5455 C.2     1  UNL1        0.2397
     13 O          64.5039   93.1268   10.2609 O.2     1  UNL1       -0.2734
     14 C          63.8149   90.8390   12.0752 C.3     1  UNL1        0.0954
     15 C          63.4705   89.6952   12.9825 C.3     1  UNL1        0.0459
     16 C          66.3496   93.8890   11.9229 C.3     1  UNL1        0.1286
     17 C          66.5416   94.2804   13.3581 C.3     1  UNL1        0.0267
     18 N          67.2527   94.4507   10.8651 N.3     1  UNL1       -0.3150
     19 H          67.9339   95.0756   11.2963 H       1  UNL1        0.1192
     20 H          66.6978   94.9700   10.1848 H       1  UNL1        0.1192
     21 N          63.7341   84.6315   16.2414 N.pl3   1  UNL1       -0.2806
     22 H          63.9601   84.2419   17.1168 H       1  UNL1        0.1551
     23 C          63.4712   83.7357   15.0673 C.ar    1  UNL1        0.2208
     24 N          63.2531   82.2668   15.2787 N.ar    1  UNL1       -0.2111
     25 C          62.9902   81.3711   14.1046 C.ar    1  UNL1        0.1147
     26 C          62.9452   81.9443   12.7191 C.ar    1  UNL1        0.0946
     27 CL         62.6822   81.0486   11.5450 Cl      1  UNL1       -0.0790
     28 C          63.1632   83.4133   12.5078 C.ar    1  UNL1        0.0992
     29 N          63.4262   84.3089   13.6819 N.ar    1  UNL1       -0.2126
     30 C          63.1183   83.9865   11.1223 C.ar    1  UNL1        0.0572
     31 C          63.8534   83.4594    9.9258 C.ar    1  UNL1        0.1235
     32 N          63.5197   84.3346    8.7542 N.ar    1  UNL1       -0.1634
     33 N          62.5783   85.4026    9.2266 N.ar    1  UNL1       -0.2281
     34 C          61.9150   86.5432    8.5132 C.ar    1  UNL1        0.1004
     35 C          61.0035   87.4686    9.2634 C.ar    1  UNL1        0.0207
     36 C          60.7554   87.2534   10.7270 C.ar    1  UNL1        0.0031
     37 C          61.4187   86.1129   11.4404 C.ar    1  UNL1        0.0193
     38 C          62.3302   85.1875   10.6903 C.ar    1  UNL1        0.0858
@<TRIPOS>BOND
     1     1     2    1
     2     2     3   ar
     3     3     4   ar
     4     4     8    1
     5     8     9    1
     6     9    10    1
     7    10    11    1
     8    11    12   am
     9    12    13    2
    10    12    16    1
    11    16    17    1
    12    16    18    1
    13    11    14    1
    14    14    15    1
    15     4     5   ar
    16     5     6    1
    17     5     7   ar
    18     7    21    1
    19    21    23    1
    20    23    24   ar
    21    24    25   ar
    22    25    26   ar
    23    26    27    1
    24    26    28   ar
    25    28    30    1
    26    30    31   ar
    27    31    32   ar
    28    32    33   ar
    29    33    34   ar
    30    34    35   ar
    31    35    36   ar
    32    36    37   ar
    33    37    38   ar
    34    28    29   ar
    35     7     2   ar
    36    29    23   ar
    37    15     8    1
    38    38    30   ar
    39    38    33   ar
    40    18    19    1
    41    18    20    1
    42    21    22    1
@<TRIPOS>MOLECULE
*****
 38 42 0 0 0
SMALL
GASTEIGER

@<TRIPOS>ATOM
      1 C          63.3876   90.5958   11.8418 C.3     1  UNL1        0.0553
      2 C          63.4422   89.4128   12.7625 C.ar    1  UNL1        0.0935
      3 N          63.4442   87.9715   12.3470 N.ar    1  UNL1       -0.1727
      4 N          63.5076   87.1314   13.5881 N.ar    1  UNL1       -0.2558
      5 C          63.5447   88.0534   14.7706 C.ar    1  UNL1        0.0704
      6 C          63.6106   87.6385   16.2105 C.3     1  UNL1        0.0531
      7 C          63.5043   89.4635   14.2604 C.ar    1  UNL1        0.0792
      8 C          63.5299   85.6324   13.6379 C.3     1  UNL1        0.1083
      9 C          62.4504   84.8433   12.9582 C.3     1  UNL1        0.0459
     10 C          62.4727   83.3442   13.0080 C.3     1  UNL1        0.0954
     11 N          63.5745   82.6344   13.7375 N.am    1  UNL1       -0.2783
     12 C          63.5968   81.1353   13.7873 C.2     1  UNL1        0.2397
     13 O          64.6986   80.4254   14.5167 O.2     1  UNL1       -0.2734
     14 C          64.6540   83.4235   14.4172 C.3     1  UNL1        0.0954
     15 C          64.6316   84.9225   14.3673 C.3     1  UNL1        0.0459
     16 C          62.5173   80.3462   13.1076 C.3     1  UNL1        0.1286
     17 C          61.2084   80.1129   13.8021 C.3     1  UNL1        0.0267
     18 N          62.7466   79.7904   11.7333 N.3     1  UNL1       -0.3150
     19 H          61.9146   79.2860   11.4274 H       1  UNL1        0.1192
     20 H          63.5427   79.1530   11.7529 H       1  UNL1        0.1192
     21 N          63.5227   90.7060   15.1005 N.pl3   1  UNL1       -0.2806
     22 H          62.7575   90.9181   15.6825 H       1  UNL1        0.1551
     23 C          64.7070   91.6254   15.0538 C.ar    1  UNL1        0.2208
     24 N          65.5771   91.7896   16.2646 N.ar    1  UNL1       -0.2111
     25 C          66.7613   92.7090   16.2180 C.ar    1  UNL1        0.1147
     26 C          67.0755   93.4642   14.9606 C.ar    1  UNL1        0.0946
     27 CL         68.2598   94.3837   14.9140 Cl      1  UNL1       -0.0790
     28 C          66.2053   93.3000   13.7498 C.ar    1  UNL1        0.0992
     29 N          65.0211   92.3806   13.7965 N.ar    1  UNL1       -0.2126
     30 C          66.5195   94.0553   12.4924 C.ar    1  UNL1        0.0572
     31 C          66.2456   95.5092   12.2455 C.ar    1  UNL1        0.1235
     32 N          66.7195   95.8416   10.8617 N.ar    1  UNL1       -0.1634
     33 N          67.2863   94.5931   10.2534 N.ar    1  UNL1       -0.2281
     34 C          67.8989   94.3189    8.9120 C.ar    1  UNL1        0.1004
     35 C          68.3879   92.9407    8.5784 C.ar    1  UNL1        0.0207
     36 C          68.2643   91.8366    9.5863 C.ar    1  UNL1        0.0031
     37 C          67.6516   92.1108   10.9277 C.ar    1  UNL1        0.0193
     38 C          67.1626   93.4890   11.2613 C.ar    1  UNL1        0.0858
@<TRIPOS>BOND
     1     1     2    1
     2     2     3   ar
     3     3     4   ar
     4     4     8    1
     5     8     9    1
     6     9    10    1
     7    10    11    1
     8    11    12   am
     9    12    13    2
    10    12    16    1
    11    16    17    1
    12    16    18    1
    13    11    14    1
    14    14    15    1
    15     4     5   ar
    16     5     6    1
    17     5     7   ar
    18     7    21    1
    19    21    23    1
    20    23    24   ar
    21    24    25   ar
    22    25    26   ar
    23    26    27    1
    24    26    28   ar
    25    28    30    1
    26    30    31   ar
    27    31    32   ar
    28    32    33   ar
    29    33    34   ar
    30    34    35   ar
    31    35    36   ar
    32    36    37   ar
    33    37    38   ar
    34    28    29   ar
    35     7     2   ar
    36    29    23   ar
    37    15     8    1
    38    38    30   ar
    39    38    33   ar
    40    18    19    1
    41    18    20    1
    42    21    22    1
@<TRIPOS>MOLECULE
*****
 38 42 0 0 0
SMALL
GASTEIGER

@<TRIPOS>ATOM
      1 C          58.9477   89.2104   12.5406 C.3     1  UNL1        0.0553
      2 C          60.3276   89.7739   12.3727 C.ar    1  UNL1        0.0935
      3 N          61.2997   90.0692   13.4762 N.ar    1  UNL1       -0.1727
      4 N          62.5507   90.6188   12.8572 N.ar    1  UNL1       -0.2558
      5 C          62.3517   90.6632   11.3712 C.ar    1  UNL1        0.0704
      6 C          63.3511   91.1451   10.3618 C.3     1  UNL1        0.0531
      7 C          60.9778   90.1410   11.0716 C.ar    1  UNL1        0.0792
      8 C          63.7841   91.0486   13.5948 C.3     1  UNL1        0.1083
      9 C          64.9806   91.5380   12.8340 C.3     1  UNL1        0.0459
     10 C          66.2141   91.9678   13.5716 C.3     1  UNL1        0.0954
     11 N          66.2508   91.9082   15.0700 N.am    1  UNL1       -0.2783
     12 C          67.4843   92.3380   15.8075 C.2     1  UNL1        0.2397
     13 O          67.5212   92.2783   17.3059 O.2     1  UNL1       -0.2734
     14 C          65.0543   91.4187   15.8307 C.3     1  UNL1        0.0954
     15 C          63.8210   90.9890   15.0931 C.3     1  UNL1        0.0459
     16 C          68.6808   92.8274   15.0468 C.3     1  UNL1        0.1286
     17 C          69.4713   93.9936   15.5615 C.3     1  UNL1        0.0267
     18 N          69.0869   92.1505   13.7712 N.3     1  UNL1       -0.3150
     19 H          69.9144   92.6100   13.3910 H       1  UNL1        0.1192
     20 H          68.3243   92.2110   13.0965 H       1  UNL1        0.1192
     21 N          60.3620   90.0091    9.7103 N.pl3   1  UNL1       -0.2806
     22 H          59.9283   90.7860    9.2888 H       1  UNL1        0.1551
     23 C          60.4070   88.6936    8.9910 C.ar    1  UNL1        0.2208
     24 N          59.4808   88.4363    7.8395 N.ar    1  UNL1       -0.2111
     25 C          59.5258   87.1208    7.1202 C.ar    1  UNL1        0.1147
     26 C          60.4971   86.0626    7.5524 C.ar    1  UNL1        0.0946
     27 CL         60.5421   84.7470    6.8331 Cl      1  UNL1       -0.0790
     28 C          61.4233   86.3198    8.7040 C.ar    1  UNL1        0.0992
     29 N          61.3783   87.6353    9.4232 N.ar    1  UNL1       -0.2126
     30 C          62.3946   85.2616    9.1361 C.ar    1  UNL1        0.0572
     31 C          63.2420   84.4193    8.2293 C.ar    1  UNL1        0.1235
     32 N          64.0600   83.4970    9.0838 N.ar    1  UNL1       -0.1634
     33 N          63.7181   83.7692   10.5187 N.ar    1  UNL1       -0.2281
     34 C          64.2111   83.1649   11.8000 C.ar    1  UNL1        0.1004
     35 C          63.6747   83.6513   13.1137 C.ar    1  UNL1        0.0207
     36 C          62.6454   84.7419   13.1460 C.ar    1  UNL1        0.0031
     37 C          62.1524   85.3461   11.8647 C.ar    1  UNL1        0.0193
     38 C          62.6888   84.8598   10.5511 C.ar    1  UNL1        0.0858
@<TRIPOS>BOND
     1     1     2    1
     2     2     3   ar
     3     3     4   ar
     4     4     8    1
     5     8     9    1
     6     9    10    1
     7    10    11    1
     8    11    12   am
     9    12    13    2
    10    12    16    1
    11    16    17    1
    12    16    18    1
    13    11    14    1
    14    14    15    1
    15     4     5   ar
    16     5     6    1
    17     5     7   ar
    18     7    21    1
    19    21    23    1
    20    23    24   ar
    21    24    25   ar
    22    25    26   ar
    23    26    27    1
    24    26    28   ar
    25    28    30    1
    26    30    31   ar
    27    31    32   ar
    28    32    33   ar
    29    33    34   ar
    30    34    35   ar
    31    35    36   ar
    32    36    37   ar
    33    37    38   ar
    34    28    29   ar
    35     7     2   ar
    36    29    23   ar
    37    15     8    1
    38    38    30   ar
    39    38    33   ar
    40    18    19    1
    41    18    20    1
    42    21    22    1
@<TRIPOS>MOLECULE
*****
 38 42 0 0 0
SMALL
GASTEIGER

@<TRIPOS>ATOM
      1 C          59.7555   89.8952    8.2051 C.3     1  UNL1        0.0553
      2 C          60.8193   89.7256    9.2489 C.ar    1  UNL1        0.0935
      3 N          61.5959   90.8292    9.9039 N.ar    1  UNL1       -0.1727
      4 N          62.5498   90.2081   10.8809 N.ar    1  UNL1       -0.2558
      5 C          62.3627   88.7207   10.8298 C.ar    1  UNL1        0.0704
      6 C          63.1132   87.7092   11.6442 C.3     1  UNL1        0.0531
      7 C          61.2932   88.4224    9.8212 C.ar    1  UNL1        0.0792
      8 C          63.5204   90.9451   11.7554 C.3     1  UNL1        0.1083
      9 C          63.6430   90.5875   13.2070 C.3     1  UNL1        0.0459
     10 C          64.6136   91.3245   14.0817 C.3     1  UNL1        0.0954
     11 N          65.4615   92.4190   13.5045 N.am    1  UNL1       -0.2783
     12 C          66.4321   93.1560   14.3792 C.2     1  UNL1        0.2397
     13 O          67.2800   94.2506   13.8021 O.2     1  UNL1       -0.2734
     14 C          65.3389   92.7766   12.0530 C.3     1  UNL1        0.0954
     15 C          64.3683   92.0396   11.1785 C.3     1  UNL1        0.0459
     16 C          66.5547   92.7984   15.8307 C.3     1  UNL1        0.1286
     17 C          67.8881   92.4101   16.3975 C.3     1  UNL1        0.0267
     18 N          65.3439   92.8292   16.7156 N.3     1  UNL1       -0.3150
     19 H          65.6084   92.5601   17.6633 H       1  UNL1        0.1192
     20 H          64.6456   92.1766   16.3592 H       1  UNL1        0.1192
     21 N          60.7865   87.0603    9.4500 N.pl3   1  UNL1       -0.2806
     22 H          59.8819   86.9569    9.0754 H       1  UNL1        0.1551
     23 C          61.6579   85.8558    9.6493 C.ar    1  UNL1        0.2208
     24 N          62.3958   85.2631    8.4857 N.ar    1  UNL1       -0.2111
     25 C          63.2672   84.0586    8.6851 C.ar    1  UNL1        0.1147
     26 C          63.4008   83.4469   10.0481 C.ar    1  UNL1        0.0946
     27 CL         64.2722   82.2424   10.2475 Cl      1  UNL1       -0.0790
     28 C          62.6629   84.0397   11.2119 C.ar    1  UNL1        0.0992
     29 N          61.7915   85.2441   11.0124 N.ar    1  UNL1       -0.2126
     30 C          62.7964   83.4279   12.5749 C.ar    1  UNL1        0.0572
     31 C          62.4871   82.0056   12.9372 C.ar    1  UNL1        0.1235
     32 N          62.7623   81.8298   14.4012 N.ar    1  UNL1       -0.1634
     33 N          63.2417   83.1435   14.9438 N.ar    1  UNL1       -0.2281
     34 C          63.6618   83.5679   16.3198 C.ar    1  UNL1        0.1004
     35 C          64.1029   84.9801   16.5670 C.ar    1  UNL1        0.0207
     36 C          64.1240   85.9678   15.4383 C.ar    1  UNL1        0.0031
     37 C          63.7039   85.5434   14.0624 C.ar    1  UNL1        0.0193
     38 C          63.2628   84.1312   13.8151 C.ar    1  UNL1        0.0858
@<TRIPOS>BOND
     1     1     2    1
     2     2     3   ar
     3     3     4   ar
     4     4     8    1
     5     8     9    1
     6     9    10    1
     7    10    11    1
     8    11    12   am
     9    12    13    2
    10    12    16    1
    11    16    17    1
    12    16    18    1
    13    11    14    1
    14    14    15    1
    15     4     5   ar
    16     5     6    1
    17     5     7   ar
    18     7    21    1
    19    21    23    1
    20    23    24   ar
    21    24    25   ar
    22    25    26   ar
    23    26    27    1
    24    26    28   ar
    25    28    30    1
    26    30    31   ar
    27    31    32   ar
    28    32    33   ar
    29    33    34   ar
    30    34    35   ar
    31    35    36   ar
    32    36    37   ar
    33    37    38   ar
    34    28    29   ar
    35     7     2   ar
    36    29    23   ar
    37    15     8    1
    38    38    30   ar
    39    38    33   ar
    40    18    19    1
    41    18    20    1
    42    21    22    1
@<TRIPOS>MOLECULE
*****
 38 42 0 0 0
SMALL
GASTEIGER

@<TRIPOS>ATOM
      1 C          60.1059   89.5591    9.0487 C.3     1  UNL1        0.0553
      2 C          60.9353   88.6923    9.9489 C.ar    1  UNL1        0.0935
      3 N          61.0409   87.1975    9.8814 N.ar    1  UNL1       -0.1727
      4 N          61.9758   86.7494   10.9656 N.ar    1  UNL1       -0.2558
      5 C          62.4480   87.9672   11.7031 C.ar    1  UNL1        0.0704
      6 C          63.3965   87.9818   12.8649 C.3     1  UNL1        0.0531
      7 C          61.8050   89.1680   11.0748 C.ar    1  UNL1        0.0792
      8 C          62.3693   85.3323   11.2605 C.3     1  UNL1        0.1083
      9 C          62.2574   84.7981   12.6577 C.3     1  UNL1        0.0459
     10 C          62.6510   83.3810   12.9526 C.3     1  UNL1        0.0954
     11 N          63.1564   82.4981   11.8502 N.am    1  UNL1       -0.2783
     12 C          63.5499   81.0810   12.1451 C.2     1  UNL1        0.2397
     13 O          64.0553   80.1981   11.0428 O.2     1  UNL1       -0.2734
     14 C          63.2683   83.0323   10.4530 C.3     1  UNL1        0.0954
     15 C          62.8747   84.4495   10.1583 C.3     1  UNL1        0.0459
     16 C          63.4380   80.5468   13.5423 C.3     1  UNL1        0.1286
     17 C          62.1636   79.9005   13.9983 C.3     1  UNL1        0.0267
     18 N          64.6006   80.6589   14.4835 N.3     1  UNL1       -0.3150
     19 H          64.3510   80.2473   15.3828 H       1  UNL1        0.1192
     20 H          64.8389   81.6421   14.6139 H       1  UNL1        0.1192
     21 N          61.9977   90.5941   11.4980 N.pl3   1  UNL1       -0.2806
     22 H          61.2551   91.2357   11.4188 H       1  UNL1        0.1551
     23 C          63.3216   91.0427   12.0418 C.ar    1  UNL1        0.2208
     24 N          63.6365   90.8576   13.4967 N.ar    1  UNL1       -0.2111
     25 C          64.9605   91.3063   14.0405 C.ar    1  UNL1        0.1147
     26 C          65.9696   91.9400   13.1295 C.ar    1  UNL1        0.0946
     27 CL         67.2936   92.3887   13.6733 Cl      1  UNL1       -0.0790
     28 C          65.6548   92.1252   11.6745 C.ar    1  UNL1        0.0992
     29 N          64.3308   91.6765   11.1308 N.ar    1  UNL1       -0.2126
     30 C          66.6639   92.7589   10.7635 C.ar    1  UNL1        0.0572
     31 C          67.9897   92.1752   10.3744 C.ar    1  UNL1        0.1235
     32 N          68.6696   93.1432    9.4521 N.ar    1  UNL1       -0.1634
     33 N          67.7640   94.3252    9.2711 N.ar    1  UNL1       -0.2281
     34 C          67.9079   95.5871    8.4731 C.ar    1  UNL1        0.1004
     35 C          66.8123   96.6114    8.4856 C.ar    1  UNL1        0.0207
     36 C          65.5727   96.3739    9.2961 C.ar    1  UNL1        0.0031
     37 C          65.4287   95.1121   10.0941 C.ar    1  UNL1        0.0193
     38 C          66.5244   94.0877   10.0817 C.ar    1  UNL1        0.0858
@<TRIPOS>BOND
     1     1     2    1
     2     2     3   ar
     3     3     4   ar
     4     4     8    1
     5     8     9    1
     6     9    10    1
     7    10    11    1
     8    11    12   am
     9    12    13    2
    10    12    16    1
    11    16    17    1
    12    16    18    1
    13    11    14    1
    14    14    15    1
    15     4     5   ar
    16     5     6    1
    17     5     7   ar
    18     7    21    1
    19    21    23    1
    20    23    24   ar
    21    24    25   ar
    22    25    26   ar
    23    26    27    1
    24    26    28   ar
    25    28    30    1
    26    30    31   ar
    27    31    32   ar
    28    32    33   ar
    29    33    34   ar
    30    34    35   ar
    31    35    36   ar
    32    36    37   ar
    33    37    38   ar
    34    28    29   ar
    35     7     2   ar
    36    29    23   ar
    37    15     8    1
    38    38    30   ar
    39    38    33   ar
    40    18    19    1
    41    18    20    1
    42    21    22    1
