@<TRIPOS>MOLECULE
*****
 35 39 0 0 0
SMALL
GASTEIGER

@<TRIPOS>ATOM
      1 C          63.0837   88.9729   11.7071 C.ar    1  UNL1        0.1074
      2 C          62.2778   89.6988   10.6710 C.ar    1  UNL1        0.0588
      3 S          62.7436   91.1243   10.6366 S.2     1  UNL1       -0.0508
      4 C          63.8372   91.2792   11.6514 C.ar    1  UNL1        0.1646
      5 N          64.0474   89.9495   12.3130 N.ar    1  UNL1       -0.2224
      6 C          63.4489   85.5579   13.6958 C.ar    1  UNL1        0.2416
      7 N          63.5833   87.0064   13.3300 N.ar    1  UNL1       -0.2089
      8 C          62.9493   87.5244   12.0730 C.ar    1  UNL1        0.1026
      9 C          62.1810   86.5939   11.1820 C.ar    1  UNL1        0.0224
     10 C          62.0467   85.1454   11.5480 C.ar    1  UNL1        0.0239
     11 C          62.6806   84.6274   12.8049 C.ar    1  UNL1        0.1189
     12 N          62.5463   83.1790   13.1708 N.ar    1  UNL1       -0.2826
     13 C          62.2207   82.6400   14.5323 C.ar    1  UNL1        0.1826
     14 N          62.1871   81.1432   14.4425 N.ar    1  UNL1       -0.2280
     15 C          62.4919   80.7569   13.0254 C.ar    1  UNL1        0.0786
     16 C          62.5623   79.3580   12.4886 C.3     1  UNL1        0.0538
     17 C          62.7139   82.0152   12.2395 C.ar    1  UNL1        0.0963
     18 C          63.7318   85.6513   16.2768 C.3     1  UNL1        0.2543
     19 O          64.0828   85.0400   14.9527 O.3     1  UNL1       -0.4551
     20 N          64.5888   92.5422   11.9519 N.pl3   1  UNL1       -0.2786
     21 H          64.1454   93.4152   11.8494 H       1  UNL1        0.1555
     22 C          66.0161   92.4750   12.4086 C.ar    1  UNL1        0.1275
     23 C          66.4867   92.4695   13.8328 C.ar    1  UNL1        0.0244
     24 C          67.9847   92.3926   13.8257 C.ar    1  UNL1        0.0773
     25 N          68.4398   92.3506   12.3970 N.ar    1  UNL1       -0.1729
     26 N          67.2232   92.4015   11.5212 N.ar    1  UNL1       -0.2382
     27 C          68.7408   92.3709   15.1210 C.3     1  UNL1        0.0474
     28 C          67.9988   92.4260   16.4234 C.3     1  UNL1        0.0067
     29 C          66.5008   92.5029   16.4306 C.3     1  UNL1        0.0052
     30 C          65.7447   92.5247   15.1353 C.3     1  UNL1        0.0305
     31 C          67.2150   92.3822   10.0213 C.3     1  UNL1        0.1314
     32 C          67.4643   93.6465    9.2536 C.3     1  UNL1        0.0581
     33 C          66.8136   94.9270    9.6858 C.3     1  UNL1        0.1392
     34 O          65.3558   94.9457   10.0387 O.3     1  UNL1       -0.3819
     35 H          64.8290   94.7551    9.2468 H       1  UNL1        0.2104
@<TRIPOS>BOND
     1    18    19    1
     2    19     6    1
     3     6     7   ar
     4     7     8   ar
     5     8     1    1
     6     1     2   ar
     7     2     3   ar
     8     3     4   ar
     9     4    20    1
    10    20    22    1
    11    22    23   ar
    12    23    24   ar
    13    24    25   ar
    14    25    26   ar
    15    26    31    1
    16    31    32    1
    17    32    33    1
    18    33    34    1
    19    24    27    1
    20    27    28    1
    21    28    29    1
    22    29    30    1
    23     4     5   ar
    24     8     9   ar
    25     9    10   ar
    26    10    11   ar
    27    11    12    1
    28    12    13   ar
    29    13    14   ar
    30    14    15   ar
    31    15    16    1
    32    15    17   ar
    33    11     6   ar
    34    17    12   ar
    35     5     1   ar
    36    26    22   ar
    37    30    23    1
    38    20    21    1
    39    34    35    1
@<TRIPOS>MOLECULE
*****
 35 39 0 0 0
SMALL
GASTEIGER

@<TRIPOS>ATOM
      1 C          62.4661   89.7253   12.1217 C.ar    1  UNL1        0.1074
      2 C          61.1062   90.3435   11.9858 C.ar    1  UNL1        0.0588
      3 S          60.1906   89.3208   11.3811 S.2     1  UNL1       -0.0508
      4 C          60.9846   88.0706   11.1433 C.ar    1  UNL1        0.1646
      5 N          62.3910   88.3206   11.6010 N.ar    1  UNL1       -0.2224
      6 C          65.5258   92.2224   12.5140 C.ar    1  UNL1        0.2416
      7 N          64.3050   91.5533   11.9554 N.ar    1  UNL1       -0.2089
      8 C          63.6869   90.3944   12.6802 C.ar    1  UNL1        0.1026
      9 C          64.2897   89.9048   13.9635 C.ar    1  UNL1        0.0224
     10 C          65.5106   90.5740   14.5220 C.ar    1  UNL1        0.0239
     11 C          66.1285   91.7327   13.7972 C.ar    1  UNL1        0.1189
     12 N          67.3493   92.4019   14.3557 N.ar    1  UNL1       -0.2826
     13 C          68.7717   92.0622   14.0216 C.ar    1  UNL1        0.1826
     14 N          69.6635   92.9785   14.8058 N.ar    1  UNL1       -0.2280
     15 C          68.7924   93.8846   15.6246 C.ar    1  UNL1        0.0786
     16 C          69.2680   94.9584   16.5576 C.3     1  UNL1        0.0538
     17 C          67.3621   93.5281   15.3463 C.ar    1  UNL1        0.0963
     18 C          66.6820   93.1968   10.4012 C.3     1  UNL1        0.2543
     19 O          66.1437   93.3811   11.7891 O.3     1  UNL1       -0.4551
     20 N          60.4637   86.7943   10.5516 N.pl3   1  UNL1       -0.2786
     21 H          59.5005   86.5933   10.5852 H       1  UNL1        0.1555
     22 C          61.4103   85.8244    9.9089 C.ar    1  UNL1        0.1275
     23 C          62.4001   84.9532   10.6238 C.ar    1  UNL1        0.0244
     24 C          63.1349   84.1458    9.5952 C.ar    1  UNL1        0.0773
     25 N          62.5991   84.5180    8.2445 N.ar    1  UNL1       -0.1729
     26 N          61.5332   85.5555    8.4383 N.ar    1  UNL1       -0.2382
     27 C          64.1968   83.1759   10.0213 C.3     1  UNL1        0.0474
     28 C          64.5240   83.0135   11.4761 C.3     1  UNL1        0.0067
     29 C          63.7893   83.8210   12.5048 C.3     1  UNL1        0.0052
     30 C          62.7273   84.7908   12.0787 C.3     1  UNL1        0.0305
     31 C          60.7312   86.2092    7.3523 C.3     1  UNL1        0.1314
     32 C          59.4027   86.8286    7.6705 C.3     1  UNL1        0.0581
     33 C          59.2531   88.3211    7.6759 C.3     1  UNL1        0.1392
     34 O          58.6988   89.0237    6.4720 O.3     1  UNL1       -0.3819
     35 H          59.3138   88.9249    5.7284 H       1  UNL1        0.2104
@<TRIPOS>BOND
     1    18    19    1
     2    19     6    1
     3     6     7   ar
     4     7     8   ar
     5     8     1    1
     6     1     2   ar
     7     2     3   ar
     8     3     4   ar
     9     4    20    1
    10    20    22    1
    11    22    23   ar
    12    23    24   ar
    13    24    25   ar
    14    25    26   ar
    15    26    31    1
    16    31    32    1
    17    32    33    1
    18    33    34    1
    19    24    27    1
    20    27    28    1
    21    28    29    1
    22    29    30    1
    23     4     5   ar
    24     8     9   ar
    25     9    10   ar
    26    10    11   ar
    27    11    12    1
    28    12    13   ar
    29    13    14   ar
    30    14    15   ar
    31    15    16    1
    32    15    17   ar
    33    11     6   ar
    34    17    12   ar
    35     5     1   ar
    36    26    22   ar
    37    30    23    1
    38    20    21    1
    39    34    35    1
@<TRIPOS>MOLECULE
*****
 35 39 0 0 0
SMALL
GASTEIGER

@<TRIPOS>ATOM
      1 C          64.1836   89.2285   14.1588 C.ar    1  UNL1        0.1074
      2 C          63.8593   89.1260   15.6197 C.ar    1  UNL1        0.0588
      3 S          63.4166   87.7202   15.8987 S.2     1  UNL1       -0.0508
      4 C          63.4673   86.9540   14.6102 C.ar    1  UNL1        0.1646
      5 N          63.9413   87.8861   13.5349 N.ar    1  UNL1       -0.2224
      6 C          66.3277   92.4461   13.2644 C.ar    1  UNL1        0.2416
      7 N          65.8458   91.2170   13.9765 N.ar    1  UNL1       -0.2089
      8 C          64.6655   90.4576   13.4468 C.ar    1  UNL1        0.1026
      9 C          63.9672   90.9275   12.2052 C.ar    1  UNL1        0.0224
     10 C          64.4492   92.1567   11.4932 C.ar    1  UNL1        0.0239
     11 C          65.6294   92.9159   12.0228 C.ar    1  UNL1        0.1189
     12 N          66.1114   94.1451   11.3108 N.ar    1  UNL1       -0.2826
     13 C          66.1522   95.5334   11.8776 C.ar    1  UNL1        0.1826
     14 N          66.7031   96.4480   10.8242 N.ar    1  UNL1       -0.2280
     15 C          67.0028   95.6251    9.6063 C.ar    1  UNL1        0.0786
     16 C          67.5689   96.1358    8.3145 C.3     1  UNL1        0.0538
     17 C          66.6371   94.2018    9.9072 C.ar    1  UNL1        0.0963
     18 C          67.6586   93.4229   15.2706 C.3     1  UNL1        0.2543
     19 O          67.5079   93.2054   13.7941 O.3     1  UNL1       -0.4551
     20 N          63.1072   85.5091   14.4288 N.pl3   1  UNL1       -0.2786
     21 H          62.8168   84.9733   15.2021 H       1  UNL1        0.1555
     22 C          63.1894   84.8806   13.0693 C.ar    1  UNL1        0.1275
     23 C          62.8158   85.5341   11.7719 C.ar    1  UNL1        0.0244
     24 C          63.0552   84.5457   10.6693 C.ar    1  UNL1        0.0773
     25 N          63.5767   83.2814   11.2853 N.ar    1  UNL1       -0.1729
     26 N          63.6597   83.4883   12.7686 N.ar    1  UNL1       -0.2382
     27 C          62.7674   84.9246    9.2468 C.3     1  UNL1        0.0474
     28 C          62.2401   86.2920    8.9269 C.3     1  UNL1        0.0067
     29 C          62.0007   87.2804   10.0295 C.3     1  UNL1        0.0052
     30 C          62.2886   86.9014   11.4520 C.3     1  UNL1        0.0305
     31 C          64.1303   82.4801   13.7746 C.3     1  UNL1        0.1314
     32 C          63.6426   81.0635   13.7013 C.3     1  UNL1        0.0581
     33 C          62.1748   80.7811   13.5754 C.3     1  UNL1        0.1392
     34 O          61.2223   81.2830   14.6199 O.3     1  UNL1       -0.3819
     35 H          61.4018   80.8368   15.4623 H       1  UNL1        0.2104
@<TRIPOS>BOND
     1    18    19    1
     2    19     6    1
     3     6     7   ar
     4     7     8   ar
     5     8     1    1
     6     1     2   ar
     7     2     3   ar
     8     3     4   ar
     9     4    20    1
    10    20    22    1
    11    22    23   ar
    12    23    24   ar
    13    24    25   ar
    14    25    26   ar
    15    26    31    1
    16    31    32    1
    17    32    33    1
    18    33    34    1
    19    24    27    1
    20    27    28    1
    21    28    29    1
    22    29    30    1
    23     4     5   ar
    24     8     9   ar
    25     9    10   ar
    26    10    11   ar
    27    11    12    1
    28    12    13   ar
    29    13    14   ar
    30    14    15   ar
    31    15    16    1
    32    15    17   ar
    33    11     6   ar
    34    17    12   ar
    35     5     1   ar
    36    26    22   ar
    37    30    23    1
    38    20    21    1
    39    34    35    1
@<TRIPOS>MOLECULE
*****
 35 39 0 0 0
SMALL
GASTEIGER

@<TRIPOS>ATOM
      1 C          64.4537   89.9232   14.1093 C.ar    1  UNL1        0.1074
      2 C          64.3333   90.6185   15.4330 C.ar    1  UNL1        0.0588
      3 S          64.7733   92.0409   15.2511 S.2     1  UNL1       -0.0508
      4 C          65.1656   92.2247   13.8150 C.ar    1  UNL1        0.1646
      5 N          64.9681   90.9159   13.1094 N.ar    1  UNL1       -0.2224
      6 C          63.0023   86.6855   12.3314 C.ar    1  UNL1        0.2416
      7 N          63.3375   88.1215   12.6067 N.ar    1  UNL1       -0.2089
      8 C          64.1185   88.4873   13.8340 C.ar    1  UNL1        0.1026
      9 C          64.5643   87.4173   14.7859 C.ar    1  UNL1        0.0224
     10 C          64.2291   85.9813   14.5106 C.ar    1  UNL1        0.0239
     11 C          63.4481   85.6155   13.2833 C.ar    1  UNL1        0.1189
     12 N          63.1129   84.1796   13.0080 N.ar    1  UNL1       -0.2826
     13 C          63.4896   83.4062   11.7791 C.ar    1  UNL1        0.1826
     14 N          62.9517   82.0136   11.9247 N.ar    1  UNL1       -0.2280
     15 C          62.2425   81.9262   13.2437 C.ar    1  UNL1        0.0786
     16 C          61.5546   80.7132   13.7961 C.3     1  UNL1        0.0538
     17 C          62.3422   83.2649   13.9131 C.ar    1  UNL1        0.0963
     18 C          60.8879   86.9566   10.8461 C.3     1  UNL1        0.2543
     19 O          62.2213   86.3197   11.1041 O.3     1  UNL1       -0.4551
     20 N          65.6674   93.4945   13.1936 N.pl3   1  UNL1       -0.2786
     21 H          65.4196   94.3643   13.5825 H       1  UNL1        0.1555
     22 C          66.5469   93.4389   11.9797 C.ar    1  UNL1        0.1275
     23 C          66.4195   94.3006   10.7585 C.ar    1  UNL1        0.0244
     24 C          67.5020   93.9061    9.7980 C.ar    1  UNL1        0.0773
     25 N          68.2984   92.8007   10.4256 N.ar    1  UNL1       -0.1729
     26 N          67.7081   92.5119   11.7740 N.ar    1  UNL1       -0.2382
     27 C          67.6227   94.6045    8.4760 C.3     1  UNL1        0.0474
     28 C          66.6609   95.6973    8.1146 C.3     1  UNL1        0.0067
     29 C          65.5784   96.0917    9.0751 C.3     1  UNL1        0.0052
     30 C          65.4577   95.3934   10.3971 C.3     1  UNL1        0.0305
     31 C          68.1937   91.4778   12.7459 C.3     1  UNL1        0.1314
     32 C          69.0896   91.8772   13.8807 C.3     1  UNL1        0.0581
     33 C          68.4958   92.3247   15.1834 C.3     1  UNL1        0.1392
     34 O          67.9825   93.7263   15.3316 O.3     1  UNL1       -0.3819
     35 H          68.7226   94.3501   15.2678 H       1  UNL1        0.2104
@<TRIPOS>BOND
     1    18    19    1
     2    19     6    1
     3     6     7   ar
     4     7     8   ar
     5     8     1    1
     6     1     2   ar
     7     2     3   ar
     8     3     4   ar
     9     4    20    1
    10    20    22    1
    11    22    23   ar
    12    23    24   ar
    13    24    25   ar
    14    25    26   ar
    15    26    31    1
    16    31    32    1
    17    32    33    1
    18    33    34    1
    19    24    27    1
    20    27    28    1
    21    28    29    1
    22    29    30    1
    23     4     5   ar
    24     8     9   ar
    25     9    10   ar
    26    10    11   ar
    27    11    12    1
    28    12    13   ar
    29    13    14   ar
    30    14    15   ar
    31    15    16    1
    32    15    17   ar
    33    11     6   ar
    34    17    12   ar
    35     5     1   ar
    36    26    22   ar
    37    30    23    1
    38    20    21    1
    39    34    35    1
@<TRIPOS>MOLECULE
*****
 35 39 0 0 0
SMALL
GASTEIGER

@<TRIPOS>ATOM
      1 C          63.2167   87.0972   15.5920 C.ar    1  UNL1        0.1074
      2 C          62.9566   87.3289   17.0509 C.ar    1  UNL1        0.0588
      3 S          63.1473   88.7905   17.3292 S.2     1  UNL1       -0.0508
      4 C          63.5252   89.4620   16.0423 C.ar    1  UNL1        0.1646
      5 N          63.5681   88.4154   14.9686 N.ar    1  UNL1       -0.2224
      6 C          63.0587   84.4150   12.6711 C.ar    1  UNL1        0.2416
      7 N          63.1364   85.7337   13.3818 N.ar    1  UNL1       -0.2089
      8 C          63.1390   85.7786   14.8812 C.ar    1  UNL1        0.1026
      9 C          63.0639   84.5047   15.6698 C.ar    1  UNL1        0.0224
     10 C          62.9862   83.1861   14.9589 C.ar    1  UNL1        0.0239
     11 C          62.9836   83.1413   13.4596 C.ar    1  UNL1        0.1189
     12 N          62.9059   81.8227   12.7488 N.ar    1  UNL1       -0.2826
     13 C          62.6747   80.4870   13.3912 C.ar    1  UNL1        0.1826
     14 N          62.6717   79.4471   12.3104 N.ar    1  UNL1       -0.2280
     15 C          62.9010   80.1399   10.9998 C.ar    1  UNL1        0.0786
     16 C          62.9730   79.4804    9.6545 C.3     1  UNL1        0.0538
     17 C          63.0458   81.6082   11.2709 C.ar    1  UNL1        0.0963
     18 C          62.3539   85.4411   10.3906 C.3     1  UNL1        0.2543
     19 O          63.0561   84.3702   11.1718 O.3     1  UNL1       -0.4551
     20 N          63.8103   90.9235   15.8608 N.pl3   1  UNL1       -0.2786
     21 H          63.5760   91.5627   16.5720 H       1  UNL1        0.1555
     22 C          64.4522   91.4110   14.5958 C.ar    1  UNL1        0.1275
     23 C          63.9163   91.2258   13.2071 C.ar    1  UNL1        0.0244
     24 C          64.8757   91.8697   12.2504 C.ar    1  UNL1        0.0773
     25 N          66.0044   92.4527   13.0479 N.ar    1  UNL1       -0.1729
     26 N          65.7427   92.1693   14.4974 N.ar    1  UNL1       -0.2382
     27 C          64.5975   91.8418   10.7767 C.3     1  UNL1        0.0474
     28 C          63.3599   91.1701   10.2597 C.3     1  UNL1        0.0067
     29 C          62.4006   90.5263   11.2164 C.3     1  UNL1        0.0052
     30 C          62.6788   90.5541   12.6901 C.3     1  UNL1        0.0305
     31 C          66.6178   92.5732   15.6468 C.3     1  UNL1        0.1314
     32 C          68.0059   92.0170   15.7642 C.3     1  UNL1        0.0581
     33 C          69.0955   92.5242   14.8667 C.3     1  UNL1        0.1392
     34 O          69.2037   92.0184   13.4587 O.3     1  UNL1       -0.3819
     35 H          69.4291   91.0750   13.4704 H       1  UNL1        0.2104
@<TRIPOS>BOND
     1    18    19    1
     2    19     6    1
     3     6     7   ar
     4     7     8   ar
     5     8     1    1
     6     1     2   ar
     7     2     3   ar
     8     3     4   ar
     9     4    20    1
    10    20    22    1
    11    22    23   ar
    12    23    24   ar
    13    24    25   ar
    14    25    26   ar
    15    26    31    1
    16    31    32    1
    17    32    33    1
    18    33    34    1
    19    24    27    1
    20    27    28    1
    21    28    29    1
    22    29    30    1
    23     4     5   ar
    24     8     9   ar
    25     9    10   ar
    26    10    11   ar
    27    11    12    1
    28    12    13   ar
    29    13    14   ar
    30    14    15   ar
    31    15    16    1
    32    15    17   ar
    33    11     6   ar
    34    17    12   ar
    35     5     1   ar
    36    26    22   ar
    37    30    23    1
    38    20    21    1
    39    34    35    1
@<TRIPOS>MOLECULE
*****
 35 39 0 0 0
SMALL
GASTEIGER

@<TRIPOS>ATOM
      1 C          59.6745   91.2694    4.6928 C.ar    1  UNL1        0.1074
      2 C          58.2125   91.5455    4.8830 C.ar    1  UNL1        0.0588
      3 S          57.6830   90.5665    5.8886 S.2     1  UNL1       -0.0508
      4 C          58.8177   89.6854    6.3198 C.ar    1  UNL1        0.1646
      5 N          60.0486   90.1199    5.5808 N.ar    1  UNL1       -0.2224
      6 C          61.0343   93.9608    2.1125 C.ar    1  UNL1        0.2416
      7 N          60.1087   93.2178    3.0297 N.ar    1  UNL1       -0.2089
      8 C          60.6000   92.0125    3.7755 C.ar    1  UNL1        0.1026
      9 C          62.0167   91.5504    3.6041 C.ar    1  UNL1        0.0224
     10 C          62.9422   92.2935    2.6868 C.ar    1  UNL1        0.0239
     11 C          62.4509   93.4987    1.9410 C.ar    1  UNL1        0.1189
     12 N          63.3764   94.2418    1.0238 N.ar    1  UNL1       -0.2826
     13 C          64.5481   95.0795    1.4428 C.ar    1  UNL1        0.1826
     14 N          65.1885   95.6330    0.2045 N.ar    1  UNL1       -0.2280
     15 C          64.4126   95.1375   -0.9798 C.ar    1  UNL1        0.0786
     16 C          64.7053   95.4475   -2.4180 C.3     1  UNL1        0.0538
     17 C          63.2926   94.2777   -0.4734 C.ar    1  UNL1        0.0963
     18 C          59.4477   95.0249    0.3517 C.3     1  UNL1        0.2543
     19 O          60.5430   95.1660    1.3668 O.3     1  UNL1       -0.4551
     20 N          58.7361   88.5663    7.3154 N.pl3   1  UNL1       -0.2786
     21 H          57.8877   88.0840    7.4454 H       1  UNL1        0.1555
     22 C          59.9470   88.1821    8.1130 C.ar    1  UNL1        0.1275
     23 C          60.7891   86.9587    7.9032 C.ar    1  UNL1        0.0244
     24 C          61.8910   86.9743    8.9208 C.ar    1  UNL1        0.0773
     25 N          61.7298   88.2075    9.7595 N.ar    1  UNL1       -0.1729
     26 N          60.5284   88.9539    9.2602 N.ar    1  UNL1       -0.2382
     27 C          62.8986   85.8637    8.9523 C.3     1  UNL1        0.0474
     28 C          62.8044   84.7374    7.9661 C.3     1  UNL1        0.0067
     29 C          61.7026   84.7218    6.9485 C.3     1  UNL1        0.0052
     30 C          60.6949   85.8324    6.9170 C.3     1  UNL1        0.0305
     31 C          60.0010   90.2455    9.8114 C.3     1  UNL1        0.1314
     32 C          59.9414   90.4591   11.2949 C.3     1  UNL1        0.0581
     33 C          59.2954   89.4307   12.1754 C.3     1  UNL1        0.1392
     34 O          59.6855   87.9874   12.0536 O.3     1  UNL1       -0.3819
     35 H          59.4139   87.6512   11.1852 H       1  UNL1        0.2104
@<TRIPOS>BOND
     1    18    19    1
     2    19     6    1
     3     6     7   ar
     4     7     8   ar
     5     8     1    1
     6     1     2   ar
     7     2     3   ar
     8     3     4   ar
     9     4    20    1
    10    20    22    1
    11    22    23   ar
    12    23    24   ar
    13    24    25   ar
    14    25    26   ar
    15    26    31    1
    16    31    32    1
    17    32    33    1
    18    33    34    1
    19    24    27    1
    20    27    28    1
    21    28    29    1
    22    29    30    1
    23     4     5   ar
    24     8     9   ar
    25     9    10   ar
    26    10    11   ar
    27    11    12    1
    28    12    13   ar
    29    13    14   ar
    30    14    15   ar
    31    15    16    1
    32    15    17   ar
    33    11     6   ar
    34    17    12   ar
    35     5     1   ar
    36    26    22   ar
    37    30    23    1
    38    20    21    1
    39    34    35    1
@<TRIPOS>MOLECULE
*****
 35 39 0 0 0
SMALL
GASTEIGER

@<TRIPOS>ATOM
      1 C          62.5591   87.8946   11.5987 C.ar    1  UNL1        0.1074
      2 C          61.9655   88.7434   10.5137 C.ar    1  UNL1        0.0588
      3 S          62.1570   90.1818   10.8935 S.2     1  UNL1       -0.0508
      4 C          62.8689   90.2219   12.2132 C.ar    1  UNL1        0.1646
      5 N          63.1174   88.8083   12.6490 N.ar    1  UNL1       -0.2224
      6 C          62.9326   84.1768   12.9361 C.ar    1  UNL1        0.2416
      7 N          62.9027   85.6762   12.9068 N.ar    1  UNL1       -0.2089
      8 C          62.5890   86.3952   11.6281 C.ar    1  UNL1        0.1026
      9 C          62.3054   85.6147   10.3789 C.ar    1  UNL1        0.0224
     10 C          62.3354   84.1152   10.4084 C.ar    1  UNL1        0.0239
     11 C          62.6490   83.3963   11.6870 C.ar    1  UNL1        0.1189
     12 N          62.6790   81.8969   11.7165 N.ar    1  UNL1       -0.2826
     13 C          62.5197   81.0355   12.9342 C.ar    1  UNL1        0.1826
     14 N          62.6158   79.6019   12.5038 N.ar    1  UNL1       -0.2280
     15 C          62.8344   79.5771   11.0199 C.ar    1  UNL1        0.0786
     16 C          62.9871   78.3495   10.1716 C.3     1  UNL1        0.0538
     17 C          62.8734   80.9956   10.5334 C.ar    1  UNL1        0.0963
     18 C          62.5569   83.8543   15.4866 C.3     1  UNL1        0.2543
     19 O          63.2462   83.4579   14.2147 O.3     1  UNL1       -0.4551
     20 N          63.2631   91.4586   12.9651 N.pl3   1  UNL1       -0.2786
     21 H          62.6249   92.2024   13.0585 H       1  UNL1        0.1555
     22 C          64.6298   91.5621   13.5747 C.ar    1  UNL1        0.1275
     23 C          65.9096   91.8107   12.8328 C.ar    1  UNL1        0.0244
     24 C          67.0273   91.8373   13.8327 C.ar    1  UNL1        0.0773
     25 N          66.4383   91.6051   15.1926 N.ar    1  UNL1       -0.1729
     26 N          64.9566   91.4350   15.0331 N.ar    1  UNL1       -0.2382
     27 C          68.4370   92.0695   13.3758 C.3     1  UNL1        0.0474
     28 C          68.7289   92.2751   11.9190 C.3     1  UNL1        0.0067
     29 C          67.6111   92.2485   10.9190 C.3     1  UNL1        0.0052
     30 C          66.2015   92.0163   11.3759 C.3     1  UNL1        0.0305
     31 C          63.9741   91.1822   16.1381 C.3     1  UNL1        0.1314
     32 C          63.0265   90.0229   16.0485 C.3     1  UNL1        0.0581
     33 C          63.5147   88.6320   16.3262 C.3     1  UNL1        0.1392
     34 O          63.8621   87.7180   15.1886 O.3     1  UNL1       -0.3819
     35 H          63.0601   87.5109   14.6838 H       1  UNL1        0.2104
@<TRIPOS>BOND
     1    18    19    1
     2    19     6    1
     3     6     7   ar
     4     7     8   ar
     5     8     1    1
     6     1     2   ar
     7     2     3   ar
     8     3     4   ar
     9     4    20    1
    10    20    22    1
    11    22    23   ar
    12    23    24   ar
    13    24    25   ar
    14    25    26   ar
    15    26    31    1
    16    31    32    1
    17    32    33    1
    18    33    34    1
    19    24    27    1
    20    27    28    1
    21    28    29    1
    22    29    30    1
    23     4     5   ar
    24     8     9   ar
    25     9    10   ar
    26    10    11   ar
    27    11    12    1
    28    12    13   ar
    29    13    14   ar
    30    14    15   ar
    31    15    16    1
    32    15    17   ar
    33    11     6   ar
    34    17    12   ar
    35     5     1   ar
    36    26    22   ar
    37    30    23    1
    38    20    21    1
    39    34    35    1
@<TRIPOS>MOLECULE
*****
 35 39 0 0 0
SMALL
GASTEIGER

@<TRIPOS>ATOM
      1 C          63.2316   87.2321   15.4841 C.ar    1  UNL1        0.1074
      2 C          63.0030   87.5191   16.9385 C.ar    1  UNL1        0.0588
      3 S          63.1955   88.9907   17.1564 S.2     1  UNL1       -0.0508
      4 C          63.5430   89.6131   15.8366 C.ar    1  UNL1        0.1646
      5 N          63.5653   88.5263   14.8031 N.ar    1  UNL1       -0.2224
      6 C          63.1481   84.4293   12.6756 C.ar    1  UNL1        0.2416
      7 N          63.2376   85.7744   13.3334 N.ar    1  UNL1       -0.2089
      8 C          63.1421   85.8871   14.8262 C.ar    1  UNL1        0.1026
      9 C          62.9572   84.6547   15.6610 C.ar    1  UNL1        0.0224
     10 C          62.8677   83.3095   15.0031 C.ar    1  UNL1        0.0239
     11 C          62.9632   83.1970   13.5103 C.ar    1  UNL1        0.1189
     12 N          62.8737   81.8519   12.8525 N.ar    1  UNL1       -0.2826
     13 C          62.5861   80.5508   13.5413 C.ar    1  UNL1        0.1826
     14 N          62.5908   79.4666   12.5049 N.ar    1  UNL1       -0.2280
     15 C          62.8814   80.0975   11.1753 C.ar    1  UNL1        0.0786
     16 C          62.9797   79.3802    9.8617 C.3     1  UNL1        0.0538
     17 C          63.0562   81.5718   11.3902 C.ar    1  UNL1        0.0963
     18 C          62.4759   85.2636   10.3087 C.3     1  UNL1        0.2543
     19 O          63.2436   84.3167   11.1829 O.3     1  UNL1       -0.4551
     20 N          63.8196   91.0672   15.5931 N.pl3   1  UNL1       -0.2786
     21 H          63.3059   91.7538   16.0767 H       1  UNL1        0.1555
     22 C          64.8790   91.4752   14.6126 C.ar    1  UNL1        0.1275
     23 C          66.2842   91.8775   14.9495 C.ar    1  UNL1        0.0244
     24 C          66.9929   92.2034   13.6683 C.ar    1  UNL1        0.0773
     25 N          66.0256   92.0025   12.5395 N.ar    1  UNL1       -0.1729
     26 N          64.7191   91.5524   13.1231 N.ar    1  UNL1       -0.2382
     27 C          68.4273   92.6410   13.6949 C.3     1  UNL1        0.0474
     28 C          69.1532   92.7526   15.0028 C.3     1  UNL1        0.0067
     29 C          68.4445   92.4267   16.2841 C.3     1  UNL1        0.0052
     30 C          67.0101   91.9891   16.2574 C.3     1  UNL1        0.0305
     31 C          63.4718   91.2353   12.3526 C.3     1  UNL1        0.1314
     32 C          63.4665   90.1053   11.3662 C.3     1  UNL1        0.0581
     33 C          62.2179   89.3019   11.1529 C.3     1  UNL1        0.1392
     34 O          61.9615   88.0796   11.9839 O.3     1  UNL1       -0.3819
     35 H          62.6265   87.4038   11.7787 H       1  UNL1        0.2104
@<TRIPOS>BOND
     1    18    19    1
     2    19     6    1
     3     6     7   ar
     4     7     8   ar
     5     8     1    1
     6     1     2   ar
     7     2     3   ar
     8     3     4   ar
     9     4    20    1
    10    20    22    1
    11    22    23   ar
    12    23    24   ar
    13    24    25   ar
    14    25    26   ar
    15    26    31    1
    16    31    32    1
    17    32    33    1
    18    33    34    1
    19    24    27    1
    20    27    28    1
    21    28    29    1
    22    29    30    1
    23     4     5   ar
    24     8     9   ar
    25     9    10   ar
    26    10    11   ar
    27    11    12    1
    28    12    13   ar
    29    13    14   ar
    30    14    15   ar
    31    15    16    1
    32    15    17   ar
    33    11     6   ar
    34    17    12   ar
    35     5     1   ar
    36    26    22   ar
    37    30    23    1
    38    20    21    1
    39    34    35    1
@<TRIPOS>MOLECULE
*****
 35 39 0 0 0
SMALL
GASTEIGER

@<TRIPOS>ATOM
      1 C          63.0247   88.7976   12.3036 C.ar    1  UNL1        0.1074
      2 C          61.9417   89.7487   11.8883 C.ar    1  UNL1        0.0588
      3 S          62.4501   91.1457   12.0880 S.2     1  UNL1       -0.0508
      4 C          63.8473   91.0580   12.6267 C.ar    1  UNL1        0.1646
      5 N          64.2024   89.6068   12.7600 N.ar    1  UNL1       -0.2224
      6 C          63.4780   84.9926   13.3366 C.ar    1  UNL1        0.2416
      7 N          63.5586   86.4901   13.3716 N.ar    1  UNL1       -0.2089
      8 C          62.9442   87.3002   12.2687 C.ar    1  UNL1        0.1026
      9 C          62.2492   86.6129   11.1308 C.ar    1  UNL1        0.0224
     10 C          62.1687   85.1153   11.0959 C.ar    1  UNL1        0.0239
     11 C          62.7831   84.3053   12.1988 C.ar    1  UNL1        0.1189
     12 N          62.7025   82.8079   12.1639 N.ar    1  UNL1       -0.2826
     13 C          62.3174   81.9186   13.3090 C.ar    1  UNL1        0.1826
     14 N          62.3698   80.4980   12.8306 N.ar    1  UNL1       -0.2280
     15 C          62.7872   80.5091   11.3897 C.ar    1  UNL1        0.0786
     16 C          62.9674   79.3042   10.5147 C.3     1  UNL1        0.0538
     17 C          62.9928   81.9368   10.9778 C.ar    1  UNL1        0.0963
     18 C          63.5909   84.3280   15.8457 C.3     1  UNL1        0.2543
     19 O          64.0923   84.1826   14.4394 O.3     1  UNL1       -0.4551
     20 N          64.7337   92.2179   12.9717 N.pl3   1  UNL1       -0.2786
     21 H          64.3715   92.9810   13.4774 H       1  UNL1        0.1555
     22 C          66.1721   92.2151   12.5461 C.ar    1  UNL1        0.1275
     23 C          66.7034   92.7031   11.2310 C.ar    1  UNL1        0.0244
     24 C          68.1913   92.5135   11.2330 C.ar    1  UNL1        0.0773
     25 N          68.5796   91.9083   12.5495 N.ar    1  UNL1       -0.1729
     26 N          67.3317   91.7239   13.3610 N.ar    1  UNL1       -0.2382
     27 C          69.0004   92.9164   10.0360 C.3     1  UNL1        0.0474
     28 C          68.3215   93.5089    8.8368 C.3     1  UNL1        0.0067
     29 C          66.8336   93.6985    8.8348 C.3     1  UNL1        0.0052
     30 C          66.0245   93.2957   10.0319 C.3     1  UNL1        0.0305
     31 C          67.2565   91.1492   14.7445 C.3     1  UNL1        0.1314
     32 C          67.7805   91.9324   15.9115 C.3     1  UNL1        0.0581
     33 C          67.8272   93.4304   15.8492 C.3     1  UNL1        0.1392
     34 O          69.1186   94.1516   16.0986 O.3     1  UNL1       -0.3819
     35 H          69.3903   94.0189   17.0203 H       1  UNL1        0.2104
@<TRIPOS>BOND
     1    18    19    1
     2    19     6    1
     3     6     7   ar
     4     7     8   ar
     5     8     1    1
     6     1     2   ar
     7     2     3   ar
     8     3     4   ar
     9     4    20    1
    10    20    22    1
    11    22    23   ar
    12    23    24   ar
    13    24    25   ar
    14    25    26   ar
    15    26    31    1
    16    31    32    1
    17    32    33    1
    18    33    34    1
    19    24    27    1
    20    27    28    1
    21    28    29    1
    22    29    30    1
    23     4     5   ar
    24     8     9   ar
    25     9    10   ar
    26    10    11   ar
    27    11    12    1
    28    12    13   ar
    29    13    14   ar
    30    14    15   ar
    31    15    16    1
    32    15    17   ar
    33    11     6   ar
    34    17    12   ar
    35     5     1   ar
    36    26    22   ar
    37    30    23    1
    38    20    21    1
    39    34    35    1
