@<TRIPOS>MOLECULE
*****
 45 47 0 0 0
SMALL
GASTEIGER

@<TRIPOS>ATOM
      1 N          63.8892   90.9918   13.8335 N.am    1  UNL1       -0.2770
      2 C          62.6901   90.4725   13.0971 C.2     1  UNL1        0.2254
      3 O          61.6032   89.7572   13.8437 O.2     1  UNL1       -0.2749
      4 C          62.5777   90.6683   11.6142 C.3     1  UNL1        0.0781
      5 C          61.2975   89.9324   11.8775 C.3     1  UNL1        0.0096
      6 C          63.6645   91.3835   10.8677 C.3     1  UNL1        0.0154
      7 C          64.8636   91.9028   11.6041 C.3     1  UNL1        0.0452
      8 C          64.9760   91.7070   13.0870 C.3     1  UNL1        0.1018
      9 C          65.9505   92.6180   10.8576 C.ar    1  UNL1       -0.0197
     10 C          67.1742   91.8711   10.4166 C.ar    1  UNL1       -0.0042
     11 C          68.2611   92.5863    9.6700 C.ar    1  UNL1        0.0005
     12 C          68.1242   94.0485    9.3645 C.ar    1  UNL1        0.0114
     13 C          66.9003   94.7954    9.8056 C.ar    1  UNL1        0.0574
     14 CL         66.7634   96.2576    9.5001 Cl      1  UNL1       -0.0823
     15 C          65.8136   94.0802   10.5520 C.ar    1  UNL1        0.0072
     16 C          66.1752   92.2263   13.8234 C.ar    1  UNL1       -0.0039
     17 C          66.2832   93.6875   14.1447 C.ar    1  UNL1       -0.0018
     18 C          67.4823   94.2069   14.8810 C.ar    1  UNL1        0.0111
     19 C          68.5736   93.2651   15.2961 C.ar    1  UNL1        0.0577
     20 CL         69.7727   93.7845   16.0324 Cl      1  UNL1       -0.0822
     21 C          68.4656   91.8039   14.9747 C.ar    1  UNL1        0.0111
     22 C          67.2664   91.2845   14.2384 C.ar    1  UNL1       -0.0018
     23 C          64.0016   90.7959   15.3164 C.3     1  UNL1        0.0991
     24 C          64.5006   92.5593   17.1580 C.3     1  UNL1        0.0018
     25 C          64.9862   91.6052   16.1074 C.3     1  UNL1        0.0216
     26 C          63.1293   89.7908   16.0084 C.3     1  UNL1        0.1703
     27 S          63.4649   88.3306   15.9363 S.O2    1  UNL1       -0.0115
     28 O          62.3516   88.0274   16.8947 O.2     1  UNL1       -0.1730
     29 O          64.5783   88.6339   14.9779 O.2     1  UNL1       -0.1730
     30 C          63.8005   86.8704   15.8641 C.3     1  UNL1        0.1108
     31 C          64.5484   87.1055   14.5853 C.3     1  UNL1        0.0236
     32 C          63.0527   86.6354   17.1430 C.3     1  UNL1        0.0236
     33 C          64.1361   85.4102   15.7920 C.3     1  UNL1        0.0236
     34 C          62.0207   90.6085   10.2228 C.3     1  UNL1        0.0952
     35 C          61.7242   89.2812    9.5901 C.2     1  UNL1        0.2413
     36 O          62.7891   88.2268    9.5249 O.2     1  UNL1       -0.2735
     37 N          60.3628   89.0083    9.0225 N.am    1  UNL1       -0.1816
     38 H          59.6639   89.7003    9.0653 H       1  UNL1        0.1764
     39 S          60.0663   87.6809    8.3898 S.O2    1  UNL1        0.1431
     40 O          59.8019   88.3640    7.0808 O.2     1  UNL1       -0.1466
     41 O          60.3308   86.9978    9.6988 O.2     1  UNL1       -0.1466
     42 C          59.7698   86.3536    7.7571 C.3     1  UNL1        0.5385
     43 F          61.2396   86.0663    7.6713 F       1  UNL1       -0.1491
     44 F          58.3001   86.6408    7.8429 F       1  UNL1       -0.1491
     45 F          59.4735   85.0262    7.1245 F       1  UNL1       -0.1491
@<TRIPOS>BOND
     1    24    25    1
     2    23    25    1
     3    23    26    1
     4    26    27    1
     5    27    28    2
     6    27    29    2
     7    27    30    1
     8    30    31    1
     9    30    32    1
    10    30    33    1
    11    23     1    1
    12     1     2   am
    13     2     3    2
    14     2     4    1
    15     4     5    1
    16     4    34    1
    17    34    35    1
    18    35    36    2
    19    35    37   am
    20    37    39    1
    21    39    40    2
    22    39    41    2
    23    39    42    1
    24    42    43    1
    25    42    44    1
    26    42    45    1
    27     4     6    1
    28     6     7    1
    29     7     9    1
    30     9    10   ar
    31    10    11   ar
    32    11    12   ar
    33    12    13   ar
    34    13    14    1
    35    13    15   ar
    36     7     8    1
    37     8    16    1
    38    16    17   ar
    39    17    18   ar
    40    18    19   ar
    41    19    20    1
    42    19    21   ar
    43    21    22   ar
    44     8     1    1
    45    22    16   ar
    46    15     9   ar
    47    37    38    1
@<TRIPOS>MOLECULE
*****
 45 47 0 0 0
SMALL
GASTEIGER

@<TRIPOS>ATOM
      1 N          63.7199   86.0375   13.2292 N.am    1  UNL1       -0.2770
      2 C          63.6890   87.4653   13.6879 C.2     1  UNL1        0.2254
      3 O          64.2420   87.8332   15.0328 O.2     1  UNL1       -0.2749
      4 C          63.1050   88.5252   12.8016 C.3     1  UNL1        0.0781
      5 C          63.5032   89.3621   13.9810 C.3     1  UNL1        0.0096
      6 C          62.5520   88.1574   11.4567 C.3     1  UNL1        0.0154
      7 C          62.5830   86.7296   10.9980 C.3     1  UNL1        0.0452
      8 C          63.1669   85.6696   11.8843 C.3     1  UNL1        0.1018
      9 C          62.0300   86.3617    9.6530 C.ar    1  UNL1       -0.0197
     10 C          62.8842   85.6197    8.6683 C.ar    1  UNL1       -0.0042
     11 C          62.3312   85.2518    7.3233 C.ar    1  UNL1        0.0005
     12 C          60.9239   85.6259    6.9632 C.ar    1  UNL1        0.0114
     13 C          60.0697   86.3680    7.9479 C.ar    1  UNL1        0.0574
     14 CL         58.6625   86.7421    7.5878 Cl      1  UNL1       -0.0823
     15 C          60.6227   86.7358    9.2928 C.ar    1  UNL1        0.0072
     16 C          63.1979   84.2418   11.4256 C.ar    1  UNL1       -0.0039
     17 C          61.9548   83.4051   11.4934 C.ar    1  UNL1       -0.0018
     18 C          61.9857   81.9773   11.0348 C.ar    1  UNL1        0.0111
     19 C          63.2598   81.3861   10.5082 C.ar    1  UNL1        0.0577
     20 CL         63.2907   79.9584   10.0495 Cl      1  UNL1       -0.0822
     21 C          64.5029   82.2228   10.4403 C.ar    1  UNL1        0.0111
     22 C          64.4720   83.6507   10.8990 C.ar    1  UNL1       -0.0018
     23 C          64.3039   84.9775   14.1155 C.3     1  UNL1        0.0991
     24 C          66.6531   85.5540   15.0635 C.3     1  UNL1        0.0018
     25 C          65.7867   84.7521   14.1382 C.3     1  UNL1        0.0216
     26 C          63.4051   84.1430   14.9790 C.3     1  UNL1        0.1703
     27 S          63.0808   82.7334   14.5820 S.O2    1  UNL1       -0.0115
     28 O          64.5233   82.4960   14.2462 O.2     1  UNL1       -0.1730
     29 O          61.6382   82.9707   14.9177 O.2     1  UNL1       -0.1730
     30 C          62.7565   81.3237   14.1849 C.3     1  UNL1        0.1108
     31 C          61.3043   81.5805   14.4595 C.3     1  UNL1        0.0236
     32 C          64.2086   81.0669   13.9103 C.3     1  UNL1        0.0236
     33 C          62.4321   79.9140   13.7879 C.3     1  UNL1        0.0236
     34 C          62.6593   89.8759   12.3250 C.3     1  UNL1        0.0952
     35 C          63.6213   90.7707   11.6011 C.2     1  UNL1        0.2413
     36 O          63.6438   90.7905   10.1014 O.2     1  UNL1       -0.2735
     37 N          64.5606   91.6457   12.3769 N.am    1  UNL1       -0.1816
     38 H          64.5458   91.6327   13.3612 H       1  UNL1        0.1764
     39 S          65.5226   92.5406   11.6530 S.O2    1  UNL1        0.1431
     40 O          66.6141   92.1303   12.5966 O.2     1  UNL1       -0.1466
     41 O          64.4310   92.9508   10.7095 O.2     1  UNL1       -0.1466
     42 C          66.4845   93.4354   10.9292 C.3     1  UNL1        0.5385
     43 F          66.9866   92.2602   10.1437 F       1  UNL1       -0.1491
     44 F          65.9824   94.6106   11.7145 F       1  UNL1       -0.1491
     45 F          67.4464   94.3301   10.2052 F       1  UNL1       -0.1491
@<TRIPOS>BOND
     1    24    25    1
     2    23    25    1
     3    23    26    1
     4    26    27    1
     5    27    28    2
     6    27    29    2
     7    27    30    1
     8    30    31    1
     9    30    32    1
    10    30    33    1
    11    23     1    1
    12     1     2   am
    13     2     3    2
    14     2     4    1
    15     4     5    1
    16     4    34    1
    17    34    35    1
    18    35    36    2
    19    35    37   am
    20    37    39    1
    21    39    40    2
    22    39    41    2
    23    39    42    1
    24    42    43    1
    25    42    44    1
    26    42    45    1
    27     4     6    1
    28     6     7    1
    29     7     9    1
    30     9    10   ar
    31    10    11   ar
    32    11    12   ar
    33    12    13   ar
    34    13    14    1
    35    13    15   ar
    36     7     8    1
    37     8    16    1
    38    16    17   ar
    39    17    18   ar
    40    18    19   ar
    41    19    20    1
    42    19    21   ar
    43    21    22   ar
    44     8     1    1
    45    22    16   ar
    46    15     9   ar
    47    37    38    1
@<TRIPOS>MOLECULE
*****
 45 47 0 0 0
SMALL
GASTEIGER

@<TRIPOS>ATOM
      1 N          63.4833   85.2936   12.6157 N.am    1  UNL1       -0.2770
      2 C          64.0668   85.5617   13.9712 C.2     1  UNL1        0.2254
      3 O          64.6760   84.4411   14.7607 O.2     1  UNL1       -0.2749
      4 C          64.0412   86.9505   14.5374 C.3     1  UNL1        0.0781
      5 C          64.7238   86.2246   15.6587 C.3     1  UNL1        0.0096
      6 C          63.4321   88.0712   13.7481 C.3     1  UNL1        0.0154
      7 C          62.8486   87.8030   12.3925 C.3     1  UNL1        0.0452
      8 C          62.8742   86.4142   11.8263 C.3     1  UNL1        0.1018
      9 C          62.2395   88.9237   11.6031 C.ar    1  UNL1       -0.0197
     10 C          63.0039   89.5471   10.4732 C.ar    1  UNL1       -0.0042
     11 C          62.3948   90.6678    9.6837 C.ar    1  UNL1        0.0005
     12 C          61.0212   91.1649   10.0243 C.ar    1  UNL1        0.0114
     13 C          60.2567   90.5414   11.1543 C.ar    1  UNL1        0.0574
     14 CL         58.8830   91.0385   11.4949 Cl      1  UNL1       -0.0823
     15 C          60.8658   89.4208   11.9437 C.ar    1  UNL1        0.0072
     16 C          62.2907   86.1461   10.4707 C.ar    1  UNL1       -0.0039
     17 C          63.1542   85.5848    9.3801 C.ar    1  UNL1       -0.0018
     18 C          62.5707   85.3167    8.0245 C.ar    1  UNL1        0.0111
     19 C          61.1236   85.6098    7.7595 C.ar    1  UNL1        0.0577
     20 CL         60.5402   85.3416    6.4039 Cl      1  UNL1       -0.0822
     21 C          60.2601   86.1710    8.8501 C.ar    1  UNL1        0.0111
     22 C          60.8437   86.4392   10.2057 C.ar    1  UNL1       -0.0018
     23 C          63.5089   83.9048   12.0495 C.3     1  UNL1        0.0991
     24 C          64.7177   82.6115   10.1479 C.3     1  UNL1        0.0018
     25 C          64.7705   83.3649   11.4439 C.3     1  UNL1        0.0216
     26 C          62.2729   83.0559   12.0889 C.3     1  UNL1        0.1703
     27 S          62.2479   81.8054   12.9170 S.O2    1  UNL1       -0.0115
     28 O          62.0136   82.6267   14.1501 O.2     1  UNL1       -0.1730
     29 O          62.4823   80.9841   11.6838 O.2     1  UNL1       -0.1730
     30 C          62.2230   80.5550   13.7450 C.3     1  UNL1        0.1108
     31 C          60.7466   80.7212   13.9516 C.3     1  UNL1        0.0236
     32 C          63.6993   80.3887   13.5385 C.3     1  UNL1        0.0236
     33 C          62.1980   79.3045   14.5731 C.3     1  UNL1        0.0236
     34 C          64.2527   88.0872   15.4931 C.3     1  UNL1        0.0952
     35 C          64.3492   89.4925   14.9774 C.2     1  UNL1        0.2413
     36 O          63.1250   90.3576   14.9244 O.2     1  UNL1       -0.2735
     37 N          65.6699   90.0325   14.5147 N.am    1  UNL1       -0.1816
     38 H          66.4734   89.4647   14.5495 H       1  UNL1        0.1764
     39 S          65.7664   91.4378   13.9990 S.O2    1  UNL1        0.1431
     40 O          66.5659   91.8262   15.2072 O.2     1  UNL1       -0.1466
     41 O          64.9668   91.0494   12.7908 O.2     1  UNL1       -0.1466
     42 C          65.8629   92.8431   13.4833 C.3     1  UNL1        0.5385
     43 F          66.5669   93.2565   14.7417 F       1  UNL1       -0.1491
     44 F          65.1588   92.4297   12.2250 F       1  UNL1       -0.1491
     45 F          65.9594   94.2483   12.9677 F       1  UNL1       -0.1491
@<TRIPOS>BOND
     1    24    25    1
     2    23    25    1
     3    23    26    1
     4    26    27    1
     5    27    28    2
     6    27    29    2
     7    27    30    1
     8    30    31    1
     9    30    32    1
    10    30    33    1
    11    23     1    1
    12     1     2   am
    13     2     3    2
    14     2     4    1
    15     4     5    1
    16     4    34    1
    17    34    35    1
    18    35    36    2
    19    35    37   am
    20    37    39    1
    21    39    40    2
    22    39    41    2
    23    39    42    1
    24    42    43    1
    25    42    44    1
    26    42    45    1
    27     4     6    1
    28     6     7    1
    29     7     9    1
    30     9    10   ar
    31    10    11   ar
    32    11    12   ar
    33    12    13   ar
    34    13    14    1
    35    13    15   ar
    36     7     8    1
    37     8    16    1
    38    16    17   ar
    39    17    18   ar
    40    18    19   ar
    41    19    20    1
    42    19    21   ar
    43    21    22   ar
    44     8     1    1
    45    22    16   ar
    46    15     9   ar
    47    37    38    1
@<TRIPOS>MOLECULE
*****
 45 47 0 0 0
SMALL
GASTEIGER

@<TRIPOS>ATOM
      1 N          64.3669   91.6527   11.7582 N.am    1  UNL1       -0.2770
      2 C          63.3268   91.3122   10.7325 C.2     1  UNL1        0.2254
      3 O          63.2833   92.0585    9.4319 O.2     1  UNL1       -0.2749
      4 C          62.3300   90.2255   11.0072 C.3     1  UNL1        0.0781
      5 C          61.8871   90.6449    9.6368 C.3     1  UNL1        0.0096
      6 C          62.3734   89.4792   12.3076 C.3     1  UNL1        0.0154
      7 C          63.4135   89.8197   13.3333 C.3     1  UNL1        0.0452
      8 C          64.4102   90.9065   13.0586 C.3     1  UNL1        0.1018
      9 C          63.4569   89.0735   14.6339 C.ar    1  UNL1       -0.0197
     10 C          63.0364   89.7533   15.9031 C.ar    1  UNL1       -0.0042
     11 C          63.0798   89.0071   17.2036 C.ar    1  UNL1        0.0005
     12 C          63.5438   87.5809   17.2348 C.ar    1  UNL1        0.0114
     13 C          63.9643   86.9011   15.9655 C.ar    1  UNL1        0.0574
     14 CL         64.4282   85.4750   15.9967 Cl      1  UNL1       -0.0823
     15 C          63.9209   87.6474   14.6651 C.ar    1  UNL1        0.0072
     16 C          65.4504   91.2470   14.0845 C.ar    1  UNL1       -0.0039
     17 C          65.0623   91.9915   15.3275 C.ar    1  UNL1       -0.0018
     18 C          66.1024   92.3320   16.3533 C.ar    1  UNL1        0.0111
     19 C          67.5306   91.9280   16.1361 C.ar    1  UNL1        0.0577
     20 CL         68.5706   92.2685   17.1619 Cl      1  UNL1       -0.0822
     21 C          67.9186   91.1835   14.8930 C.ar    1  UNL1        0.0111
     22 C          66.8785   90.8430   13.8672 C.ar    1  UNL1       -0.0018
     23 C          65.3636   92.7395   11.4835 C.3     1  UNL1        0.0991
     24 C          66.7483   94.2416   13.0885 C.3     1  UNL1        0.0018
     25 C          65.4541   93.9233   12.4001 C.3     1  UNL1        0.0216
     26 C          66.2698   92.6425   10.2921 C.3     1  UNL1        0.1703
     27 S          66.7423   93.8896    9.6056 S.O2    1  UNL1       -0.0115
     28 O          68.1288   93.3224    9.5294 O.2     1  UNL1       -0.1730
     29 O          65.3558   94.4569    9.6819 O.2     1  UNL1       -0.1730
     30 C          67.2148   95.1368    8.9191 C.3     1  UNL1        0.1108
     31 C          68.2307   94.3347    8.1611 C.3     1  UNL1        0.0236
     32 C          66.1990   95.9389    9.6772 C.3     1  UNL1        0.0236
     33 C          67.6873   96.3840    8.2326 C.3     1  UNL1        0.0236
     34 C          61.1795   89.2844   10.8059 C.3     1  UNL1        0.0952
     35 C          61.1541   88.3751    9.6131 C.2     1  UNL1        0.2413
     36 O          60.5405   88.8424    8.3267 O.2     1  UNL1       -0.2735
     37 N          61.7424   86.9985    9.7069 N.am    1  UNL1       -0.1816
     38 H          62.1452   86.6918   10.5512 H       1  UNL1        0.1764
     39 S          61.7171   86.0892    8.5141 S.O2    1  UNL1        0.1431
     40 O          63.2168   86.0829    8.4872 O.2     1  UNL1       -0.1466
     41 O          60.2173   86.0956    8.5411 O.2     1  UNL1       -0.1466
     42 C          61.6917   85.1799    7.3214 C.3     1  UNL1        0.5385
     43 F          60.2155   85.4058    7.1808 F       1  UNL1       -0.1491
     44 F          63.1679   84.9540    7.4621 F       1  UNL1       -0.1491
     45 F          61.6662   84.2707    6.1287 F       1  UNL1       -0.1491
@<TRIPOS>BOND
     1    24    25    1
     2    23    25    1
     3    23    26    1
     4    26    27    1
     5    27    28    2
     6    27    29    2
     7    27    30    1
     8    30    31    1
     9    30    32    1
    10    30    33    1
    11    23     1    1
    12     1     2   am
    13     2     3    2
    14     2     4    1
    15     4     5    1
    16     4    34    1
    17    34    35    1
    18    35    36    2
    19    35    37   am
    20    37    39    1
    21    39    40    2
    22    39    41    2
    23    39    42    1
    24    42    43    1
    25    42    44    1
    26    42    45    1
    27     4     6    1
    28     6     7    1
    29     7     9    1
    30     9    10   ar
    31    10    11   ar
    32    11    12   ar
    33    12    13   ar
    34    13    14    1
    35    13    15   ar
    36     7     8    1
    37     8    16    1
    38    16    17   ar
    39    17    18   ar
    40    18    19   ar
    41    19    20    1
    42    19    21   ar
    43    21    22   ar
    44     8     1    1
    45    22    16   ar
    46    15     9   ar
    47    37    38    1
@<TRIPOS>MOLECULE
*****
 45 47 0 0 0
SMALL
GASTEIGER

@<TRIPOS>ATOM
      1 N          63.7352   86.0916   13.2273 N.am    1  UNL1       -0.2770
      2 C          63.7375   87.5367   13.6294 C.2     1  UNL1        0.2254
      3 O          64.3240   87.9475   14.9475 O.2     1  UNL1       -0.2749
      4 C          63.1535   88.5710   12.7133 C.3     1  UNL1        0.0781
      5 C          63.5896   89.4466   13.8505 C.3     1  UNL1        0.0096
      6 C          62.5671   88.1602   11.3953 C.3     1  UNL1        0.0154
      7 C          62.5648   86.7151   10.9932 C.3     1  UNL1        0.0452
      8 C          63.1488   85.6808   11.9092 C.3     1  UNL1        0.1018
      9 C          61.9783   86.3042    9.6751 C.ar    1  UNL1       -0.0197
     10 C          62.8110   85.5391    8.6896 C.ar    1  UNL1       -0.0042
     11 C          62.2246   85.1282    7.3715 C.ar    1  UNL1        0.0005
     12 C          60.8055   85.4826    7.0389 C.ar    1  UNL1        0.0114
     13 C          59.9728   86.2478    8.0244 C.ar    1  UNL1        0.0574
     14 CL         58.5537   86.6022    7.6918 Cl      1  UNL1       -0.0823
     15 C          60.5593   86.6586    9.3425 C.ar    1  UNL1        0.0072
     16 C          63.1465   84.2357   11.5071 C.ar    1  UNL1       -0.0039
     17 C          64.1229   83.7410   10.4815 C.ar    1  UNL1       -0.0018
     18 C          64.1206   82.2959   10.0793 C.ar    1  UNL1        0.0111
     19 C          63.1419   81.3454   10.7029 C.ar    1  UNL1        0.0577
     20 CL         63.1396   79.9004   10.3007 Cl      1  UNL1       -0.0822
     21 C          62.1655   81.8401   11.7285 C.ar    1  UNL1        0.0111
     22 C          62.1678   83.2852   12.1306 C.ar    1  UNL1       -0.0018
     23 C          64.3193   85.0573   14.1433 C.3     1  UNL1        0.0991
     24 C          66.8267   85.1973   14.8089 C.3     1  UNL1        0.0018
     25 C          65.7389   84.6090   13.9601 C.3     1  UNL1        0.0216
     26 C          63.4838   84.4713   15.2426 C.3     1  UNL1        0.1703
     27 S          63.0327   85.3345   16.3834 S.O2    1  UNL1       -0.0115
     28 O          64.4523   85.4565   16.8523 O.2     1  UNL1       -0.1730
     29 O          61.6132   85.2126   15.9144 O.2     1  UNL1       -0.1730
     30 C          62.5817   86.1978   17.5241 C.3     1  UNL1        0.1108
     31 C          63.8790   85.9403   18.2319 C.3     1  UNL1        0.0236
     32 C          61.2845   86.4553   16.8164 C.3     1  UNL1        0.0236
     33 C          62.1307   87.0610   18.6649 C.3     1  UNL1        0.0236
     34 C          62.7209   89.9094   12.1923 C.3     1  UNL1        0.0952
     35 C          63.6984   90.7811   11.4611 C.2     1  UNL1        0.2413
     36 O          63.7323   90.7758    9.9615 O.2     1  UNL1       -0.2735
     37 N          64.6419   91.6582   12.2295 N.am    1  UNL1       -0.1816
     38 H          64.6196   91.6617   13.2137 H       1  UNL1        0.1764
     39 S          65.6194   92.5300   11.4983 S.O2    1  UNL1        0.1431
     40 O          64.5266   92.9807   10.5750 O.2     1  UNL1       -0.1466
     41 O          66.7122   92.0792   12.4217 O.2     1  UNL1       -0.1466
     42 C          66.5969   93.4017   10.7672 C.3     1  UNL1        0.5385
     43 F          67.4751   92.2107   10.5215 F       1  UNL1       -0.1491
     44 F          65.7188   94.5927   11.0128 F       1  UNL1       -0.1491
     45 F          67.5745   94.2732   10.0360 F       1  UNL1       -0.1491
@<TRIPOS>BOND
     1    24    25    1
     2    23    25    1
     3    23    26    1
     4    26    27    1
     5    27    28    2
     6    27    29    2
     7    27    30    1
     8    30    31    1
     9    30    32    1
    10    30    33    1
    11    23     1    1
    12     1     2   am
    13     2     3    2
    14     2     4    1
    15     4     5    1
    16     4    34    1
    17    34    35    1
    18    35    36    2
    19    35    37   am
    20    37    39    1
    21    39    40    2
    22    39    41    2
    23    39    42    1
    24    42    43    1
    25    42    44    1
    26    42    45    1
    27     4     6    1
    28     6     7    1
    29     7     9    1
    30     9    10   ar
    31    10    11   ar
    32    11    12   ar
    33    12    13   ar
    34    13    14    1
    35    13    15   ar
    36     7     8    1
    37     8    16    1
    38    16    17   ar
    39    17    18   ar
    40    18    19   ar
    41    19    20    1
    42    19    21   ar
    43    21    22   ar
    44     8     1    1
    45    22    16   ar
    46    15     9   ar
    47    37    38    1
