@<TRIPOS>MOLECULE
*****
 30 33 0 0 0
SMALL
GASTEIGER

@<TRIPOS>ATOM
      1 C          62.5782   89.8183   11.3914 C.2     1  UNL1        0.0294
      2 C          61.6355   90.5833   10.5105 C.2     1  UNL1        0.2320
      3 N          60.8142   89.8603    9.4845 N.2     1  UNL1       -0.0311
      4 C          60.9357   88.3723    9.3393 C.2     1  UNL1        0.3720
      5 N          60.2601   87.3947    8.4238 N.2     1  UNL1       -0.0308
      6 C          60.7853   86.0255    8.7390 C.2     1  UNL1        0.2359
      7 C          61.7855   86.1569    9.8491 C.2     1  UNL1        0.0521
      8 C          61.8785   87.6073   10.2201 C.2     1  UNL1        0.0744
      9 C          62.6997   88.3303   11.2461 C.3     1  UNL1        0.0645
     10 C          62.5573   85.0349   10.4779 C.ar    1  UNL1        0.0229
     11 C          63.4395   84.1651    9.6321 C.ar    1  UNL1        0.0045
     12 C          64.2113   83.0430   10.2609 C.ar    1  UNL1        0.0339
     13 C          64.1010   82.7907   11.7354 C.ar    1  UNL1        0.1254
     14 N          64.8727   81.6687   12.3642 N.pl3   1  UNL1       -0.3426
     15 N          63.2188   83.6605   12.5811 N.ar    1  UNL1       -0.2296
     16 C          62.4470   84.7825   11.9523 C.ar    1  UNL1        0.1004
     17 H          65.4517   81.0978   11.8091 H       1  UNL1        0.1437
     18 H          64.8003   81.5031   13.3319 H       1  UNL1        0.1437
     19 C          64.0324   90.9654   14.9014 C.ar    1  UNL1        0.1754
     20 C          63.2111   90.2424   13.8752 C.ar    1  UNL1        0.0401
     21 C          63.3995   90.5412   12.4175 C.ar    1  UNL1        0.0063
     22 C          64.4092   91.5630   11.9857 C.ar    1  UNL1        0.0401
     23 C          65.2305   92.2860   13.0118 C.ar    1  UNL1        0.1754
     24 C          65.0421   91.9871   14.4696 C.ar    1  UNL1        0.2061
     25 C          63.1395   89.4118   16.7826 C.3     1  UNL1        0.2526
     26 O          63.8439   90.6665   16.3591 O.3     1  UNL1       -0.4683
     27 O          66.2403   93.3078   12.5800 O.3     1  UNL1       -0.4683
     28 C          66.0289   94.0823   11.3129 C.3     1  UNL1        0.2526
     29 O          65.8634   92.7101   15.4956 O.3     1  UNL1       -0.4654
     30 C          67.2927   92.3171   15.7248 C.3     1  UNL1        0.2528
@<TRIPOS>BOND
     1    25    26    1
     2    26    19    1
     3    19    20   ar
     4    20    21   ar
     5    21     1    1
     6     1     2    2
     7     2     3    1
     8     3     4    2
     9     4     5    1
    10     5     6    2
    11     6     7    1
    12     7    10    1
    13    10    11   ar
    14    11    12   ar
    15    12    13   ar
    16    13    14    1
    17    13    15   ar
    18    15    16   ar
    19     7     8    2
    20     8     9    1
    21    21    22   ar
    22    22    23   ar
    23    23    27    1
    24    27    28    1
    25    23    24   ar
    26    24    29    1
    27    29    30    1
    28    24    19   ar
    29     9     1    1
    30     8     4    1
    31    16    10   ar
    32    14    17    1
    33    14    18    1
@<TRIPOS>MOLECULE
*****
 30 33 0 0 0
SMALL
GASTEIGER

@<TRIPOS>ATOM
      1 C          62.5748   89.8150   11.4060 C.2     1  UNL1        0.0294
      2 C          61.6389   90.5847   10.5220 C.2     1  UNL1        0.2320
      3 N          60.8234   89.8669    9.4878 N.2     1  UNL1       -0.0311
      4 C          60.9438   88.3793    9.3376 C.2     1  UNL1        0.3720
      5 N          60.2729   87.4061    8.4140 N.2     1  UNL1       -0.0308
      6 C          60.7942   86.0350    8.7272 C.2     1  UNL1        0.2359
      7 C          61.7872   86.1607    9.8444 C.2     1  UNL1        0.0521
      8 C          61.8797   87.6095   10.2216 C.2     1  UNL1        0.0744
      9 C          62.6952   88.3274   11.2558 C.3     1  UNL1        0.0645
     10 C          62.5533   85.0351   10.4739 C.ar    1  UNL1        0.0229
     11 C          63.4392   84.1669    9.6305 C.ar    1  UNL1        0.0045
     12 C          64.2054   83.0414   10.2599 C.ar    1  UNL1        0.0339
     13 C          64.0856   82.7840   11.7328 C.ar    1  UNL1        0.1254
     14 N          64.8517   81.6585   12.3623 N.pl3   1  UNL1       -0.3426
     15 N          63.1997   83.6523   12.5762 N.ar    1  UNL1       -0.2296
     16 C          62.4336   84.7778   11.9467 C.ar    1  UNL1        0.1004
     17 H          65.4332   81.0886   11.8087 H       1  UNL1        0.1437
     18 H          64.7731   81.4896   13.3290 H       1  UNL1        0.1437
     19 C          65.2104   92.2822   13.0542 C.ar    1  UNL1        0.1754
     20 C          64.3949   91.5643   12.0199 C.ar    1  UNL1        0.0401
     21 C          63.3903   90.5328   12.4403 C.ar    1  UNL1        0.0063
     22 C          63.2012   90.2191   13.8949 C.ar    1  UNL1        0.0401
     23 C          64.0167   90.9369   14.9291 C.ar    1  UNL1        0.1754
     24 C          65.0213   91.9685   14.5088 C.ar    1  UNL1        0.2061
     25 C          66.0172   94.0771   11.3579 C.3     1  UNL1        0.2526
     26 O          66.2150   93.3137   12.6339 O.3     1  UNL1       -0.4683
     27 O          63.8275   90.6231   16.3837 O.3     1  UNL1       -0.4683
     28 C          63.1300   89.3601   16.7940 C.3     1  UNL1        0.2526
     29 O          65.8368   92.6862   15.5431 O.3     1  UNL1       -0.4654
     30 C          67.2778   92.3230   15.7467 C.3     1  UNL1        0.2528
@<TRIPOS>BOND
     1    25    26    1
     2    26    19    1
     3    19    20   ar
     4    20    21   ar
     5    21     1    1
     6     1     2    2
     7     2     3    1
     8     3     4    2
     9     4     5    1
    10     5     6    2
    11     6     7    1
    12     7    10    1
    13    10    11   ar
    14    11    12   ar
    15    12    13   ar
    16    13    14    1
    17    13    15   ar
    18    15    16   ar
    19     7     8    2
    20     8     9    1
    21    21    22   ar
    22    22    23   ar
    23    23    27    1
    24    27    28    1
    25    23    24   ar
    26    24    29    1
    27    29    30    1
    28    24    19   ar
    29     9     1    1
    30     8     4    1
    31    16    10   ar
    32    14    17    1
    33    14    18    1
@<TRIPOS>MOLECULE
*****
 30 33 0 0 0
SMALL
GASTEIGER

@<TRIPOS>ATOM
      1 C          64.2395   89.4312   15.0279 C.2     1  UNL1        0.0294
      2 C          63.7788   89.7870   16.4103 C.2     1  UNL1        0.2320
      3 N          63.1609   88.7391   17.2878 N.2     1  UNL1       -0.0311
      4 C          63.0036   87.3354   16.7828 C.2     1  UNL1        0.3720
      5 N          62.4355   86.0992   17.4146 N.2     1  UNL1       -0.0308
      6 C          62.5451   84.9795   16.4226 C.2     1  UNL1        0.2359
      7 C          63.1809   85.5236   15.1778 C.2     1  UNL1        0.0521
      8 C          63.4643   86.9797   15.4004 C.2     1  UNL1        0.0744
      9 C          64.0822   88.0275   14.5229 C.3     1  UNL1        0.0645
     10 C          63.4808   84.7479   13.9294 C.ar    1  UNL1        0.0229
     11 C          62.8658   85.1595   12.6247 C.ar    1  UNL1        0.0045
     12 C          63.1656   84.3838   11.3764 C.ar    1  UNL1        0.0339
     13 C          64.0804   83.1964   11.4327 C.ar    1  UNL1        0.1254
     14 N          64.3803   82.4207   10.1844 N.pl3   1  UNL1       -0.3426
     15 N          64.6954   82.7848   12.7374 N.ar    1  UNL1       -0.2296
     16 C          64.3955   83.5605   13.9858 C.ar    1  UNL1        0.1004
     17 H          63.9766   82.6909    9.3280 H       1  UNL1        0.1437
     18 H          64.9807   81.6414   10.2214 H       1  UNL1        0.1437
     19 C          64.8644   91.8454   11.9405 C.ar    1  UNL1        0.1754
     20 C          64.2463   90.7975   12.8181 C.ar    1  UNL1        0.0401
     21 C          64.8576   90.4791   14.1503 C.ar    1  UNL1        0.0063
     22 C          66.0868   91.2086   14.6051 C.ar    1  UNL1        0.0401
     23 C          66.7048   92.2565   13.7277 C.ar    1  UNL1        0.1754
     24 C          66.0936   92.5749   12.3953 C.ar    1  UNL1        0.2061
     25 C          63.1225   91.3296   10.0832 C.3     1  UNL1        0.2526
     26 O          64.2532   92.1638   10.6082 O.3     1  UNL1       -0.4683
     27 O          67.9340   92.9859   14.1825 O.3     1  UNL1       -0.4683
     28 C          68.0517   93.4418   15.6068 C.3     1  UNL1        0.2526
     29 O          66.7116   93.6228   11.5179 O.3     1  UNL1       -0.4654
     30 C          66.1650   95.0196   11.5190 C.3     1  UNL1        0.2528
@<TRIPOS>BOND
     1    25    26    1
     2    26    19    1
     3    19    20   ar
     4    20    21   ar
     5    21     1    1
     6     1     2    2
     7     2     3    1
     8     3     4    2
     9     4     5    1
    10     5     6    2
    11     6     7    1
    12     7    10    1
    13    10    11   ar
    14    11    12   ar
    15    12    13   ar
    16    13    14    1
    17    13    15   ar
    18    15    16   ar
    19     7     8    2
    20     8     9    1
    21    21    22   ar
    22    22    23   ar
    23    23    27    1
    24    27    28    1
    25    23    24   ar
    26    24    29    1
    27    29    30    1
    28    24    19   ar
    29     9     1    1
    30     8     4    1
    31    16    10   ar
    32    14    17    1
    33    14    18    1
@<TRIPOS>MOLECULE
*****
 30 33 0 0 0
SMALL
GASTEIGER

@<TRIPOS>ATOM
      1 C          64.2378   89.4231   15.0199 C.2     1  UNL1        0.0294
      2 C          63.7801   89.7745   16.4044 C.2     1  UNL1        0.2320
      3 N          63.1651   88.7235   17.2803 N.2     1  UNL1       -0.0311
      4 C          63.0076   87.3212   16.7716 C.2     1  UNL1        0.3720
      5 N          62.4420   86.0827   17.4011 N.2     1  UNL1       -0.0308
      6 C          62.5500   84.9660   16.4056 C.2     1  UNL1        0.2359
      7 C          63.1825   85.5142   15.1608 C.2     1  UNL1        0.0521
      8 C          63.4653   86.9699   15.3870 C.2     1  UNL1        0.0744
      9 C          64.0803   88.0208   14.5112 C.3     1  UNL1        0.0645
     10 C          63.4799   84.7424   13.9095 C.ar    1  UNL1        0.0229
     11 C          62.8594   85.1558   12.6079 C.ar    1  UNL1        0.0045
     12 C          63.1568   84.3840   11.3566 C.ar    1  UNL1        0.0339
     13 C          64.0747   83.1987   11.4068 C.ar    1  UNL1        0.1254
     14 N          64.3722   82.4269   10.1555 N.pl3   1  UNL1       -0.3426
     15 N          64.6952   82.7853   12.7084 N.ar    1  UNL1       -0.2296
     16 C          64.3978   83.5572   13.9597 C.ar    1  UNL1        0.1004
     17 H          63.9649   82.6982    9.3012 H       1  UNL1        0.1437
     18 H          64.9746   81.6490   10.1884 H       1  UNL1        0.1437
     19 C          66.6959   92.2563   13.7233 C.ar    1  UNL1        0.1754
     20 C          66.0808   91.2053   14.5992 C.ar    1  UNL1        0.0401
     21 C          64.8529   90.4740   14.1439 C.ar    1  UNL1        0.0063
     22 C          64.2400   90.7936   12.8126 C.ar    1  UNL1        0.0401
     23 C          64.8551   91.8445   11.9367 C.ar    1  UNL1        0.1754
     24 C          66.0831   92.5759   12.3920 C.ar    1  UNL1        0.2061
     25 C          68.0392   93.4460   15.6022 C.3     1  UNL1        0.2526
     26 O          67.9239   92.9876   14.1786 O.3     1  UNL1       -0.4683
     27 O          64.2422   92.1641   10.6054 O.3     1  UNL1       -0.4683
     28 C          63.1276   91.3151   10.0697 C.3     1  UNL1        0.2526
     29 O          66.6981   93.6267   11.5161 O.3     1  UNL1       -0.4654
     30 C          66.1755   95.0323   11.5512 C.3     1  UNL1        0.2528
@<TRIPOS>BOND
     1    25    26    1
     2    26    19    1
     3    19    20   ar
     4    20    21   ar
     5    21     1    1
     6     1     2    2
     7     2     3    1
     8     3     4    2
     9     4     5    1
    10     5     6    2
    11     6     7    1
    12     7    10    1
    13    10    11   ar
    14    11    12   ar
    15    12    13   ar
    16    13    14    1
    17    13    15   ar
    18    15    16   ar
    19     7     8    2
    20     8     9    1
    21    21    22   ar
    22    22    23   ar
    23    23    27    1
    24    27    28    1
    25    23    24   ar
    26    24    29    1
    27    29    30    1
    28    24    19   ar
    29     9     1    1
    30     8     4    1
    31    16    10   ar
    32    14    17    1
    33    14    18    1
@<TRIPOS>MOLECULE
*****
 30 33 0 0 0
SMALL
GASTEIGER

@<TRIPOS>ATOM
      1 C          62.1248   86.2158   11.0543 C.2     1  UNL1        0.0294
      2 C          61.0925   86.2629    9.9670 C.2     1  UNL1        0.2320
      3 N          60.6811   87.5806    9.3802 N.2     1  UNL1       -0.0311
      4 C          61.3018   88.8511    9.8806 C.2     1  UNL1        0.3720
      5 N          61.0977   90.2869    9.4971 N.2     1  UNL1       -0.0308
      6 C          62.0038   91.1270   10.3474 C.2     1  UNL1        0.2359
      7 C          62.7679   90.2106   11.2564 C.2     1  UNL1        0.0521
      8 C          62.3340   88.8040   10.9679 C.2     1  UNL1        0.0744
      9 C          62.7455   87.4863   11.5547 C.3     1  UNL1        0.0645
     10 C          63.7869   90.6275   12.2750 C.ar    1  UNL1        0.0229
     11 C          63.9151   89.8679   13.5621 C.ar    1  UNL1        0.0045
     12 C          64.9341   90.2848   14.5808 C.ar    1  UNL1        0.0339
     13 C          65.8250   91.4613   14.3125 C.ar    1  UNL1        0.1254
     14 N          66.8441   91.8782   15.3311 N.pl3   1  UNL1       -0.3426
     15 N          65.6969   92.2209   13.0254 N.ar    1  UNL1       -0.2296
     16 C          64.6778   91.8040   12.0067 C.ar    1  UNL1        0.1004
     17 H          66.9282   91.3797   16.1759 H       1  UNL1        0.1437
     18 H          67.4288   92.6505   15.1550 H       1  UNL1        0.1437
     19 C          62.8941   83.3710   13.7124 C.ar    1  UNL1        0.1754
     20 C          62.4826   84.6887   13.1255 C.ar    1  UNL1        0.0401
     21 C          62.5363   84.8981   11.6412 C.ar    1  UNL1        0.0063
     22 C          63.0016   83.7899   10.7438 C.ar    1  UNL1        0.0401
     23 C          63.4131   82.4723   11.3306 C.ar    1  UNL1        0.1754
     24 C          63.3594   82.2628   12.8150 C.ar    1  UNL1        0.2061
     25 C          62.6811   84.3371   16.1148 C.3     1  UNL1        0.2526
     26 O          62.8404   83.1615   15.1967 O.3     1  UNL1       -0.4683
     27 O          63.8784   81.3641   10.4332 O.3     1  UNL1       -0.4683
     28 C          62.9602   80.2214   10.1146 C.3     1  UNL1        0.2526
     29 O          63.7709   80.9451   13.4018 O.3     1  UNL1       -0.4654
     30 C          62.7318   79.9177   13.7405 C.3     1  UNL1        0.2528
@<TRIPOS>BOND
     1    25    26    1
     2    26    19    1
     3    19    20   ar
     4    20    21   ar
     5    21     1    1
     6     1     2    2
     7     2     3    1
     8     3     4    2
     9     4     5    1
    10     5     6    2
    11     6     7    1
    12     7    10    1
    13    10    11   ar
    14    11    12   ar
    15    12    13   ar
    16    13    14    1
    17    13    15   ar
    18    15    16   ar
    19     7     8    2
    20     8     9    1
    21    21    22   ar
    22    22    23   ar
    23    23    27    1
    24    27    28    1
    25    23    24   ar
    26    24    29    1
    27    29    30    1
    28    24    19   ar
    29     9     1    1
    30     8     4    1
    31    16    10   ar
    32    14    17    1
    33    14    18    1
@<TRIPOS>MOLECULE
*****
 30 33 0 0 0
SMALL
GASTEIGER

@<TRIPOS>ATOM
      1 C          62.1181   86.2175   11.0424 C.2     1  UNL1        0.0294
      2 C          61.0845   86.2641    9.9565 C.2     1  UNL1        0.2320
      3 N          60.6719   87.5815    9.3698 N.2     1  UNL1       -0.0311
      4 C          61.2930   88.8523    9.8691 C.2     1  UNL1        0.3720
      5 N          61.0881   90.2879    9.4855 N.2     1  UNL1       -0.0308
      6 C          61.9951   91.1285   10.3344 C.2     1  UNL1        0.2359
      7 C          62.7606   90.2125   11.2426 C.2     1  UNL1        0.0521
      8 C          62.3267   88.8057   10.9550 C.2     1  UNL1        0.0744
      9 C          62.7393   87.4883   11.5417 C.3     1  UNL1        0.0645
     10 C          63.7810   90.6299   12.2598 C.ar    1  UNL1        0.0229
     11 C          63.9132   89.8687   13.5455 C.ar    1  UNL1        0.0045
     12 C          64.9335   90.2861   14.5627 C.ar    1  UNL1        0.0339
     13 C          65.8216   91.4647   14.2943 C.ar    1  UNL1        0.1254
     14 N          66.8419   91.8821   15.3115 N.pl3   1  UNL1       -0.3426
     15 N          65.6894   92.2259   13.0085 N.ar    1  UNL1       -0.2296
     16 C          64.6691   91.8085   11.9913 C.ar    1  UNL1        0.1004
     17 H          66.9287   91.3825   16.1553 H       1  UNL1        0.1437
     18 H          67.4248   92.6556   15.1352 H       1  UNL1        0.1437
     19 C          63.4088   82.4747   11.3182 C.ar    1  UNL1        0.1754
     20 C          62.9962   83.7921   10.7315 C.ar    1  UNL1        0.0401
     21 C          62.5308   84.9000   11.6291 C.ar    1  UNL1        0.0063
     22 C          62.4779   84.6906   13.1135 C.ar    1  UNL1        0.0401
     23 C          62.8905   83.3733   13.7002 C.ar    1  UNL1        0.1754
     24 C          63.3559   82.2652   12.8026 C.ar    1  UNL1        0.2061
     25 C          62.9562   80.2242   10.1014 C.3     1  UNL1        0.2526
     26 O          63.8743   81.3667   10.4206 O.3     1  UNL1       -0.4683
     27 O          62.8376   83.1638   15.1846 O.3     1  UNL1       -0.4683
     28 C          62.6542   84.3368   16.1014 C.3     1  UNL1        0.2526
     29 O          63.7685   80.9479   13.3893 O.3     1  UNL1       -0.4654
     30 C          62.7304   79.9193   13.7271 C.3     1  UNL1        0.2528
@<TRIPOS>BOND
     1    25    26    1
     2    26    19    1
     3    19    20   ar
     4    20    21   ar
     5    21     1    1
     6     1     2    2
     7     2     3    1
     8     3     4    2
     9     4     5    1
    10     5     6    2
    11     6     7    1
    12     7    10    1
    13    10    11   ar
    14    11    12   ar
    15    12    13   ar
    16    13    14    1
    17    13    15   ar
    18    15    16   ar
    19     7     8    2
    20     8     9    1
    21    21    22   ar
    22    22    23   ar
    23    23    27    1
    24    27    28    1
    25    23    24   ar
    26    24    29    1
    27    29    30    1
    28    24    19   ar
    29     9     1    1
    30     8     4    1
    31    16    10   ar
    32    14    17    1
    33    14    18    1
@<TRIPOS>MOLECULE
*****
 30 33 0 0 0
SMALL
GASTEIGER

@<TRIPOS>ATOM
      1 C          63.7223   89.6129   13.1902 C.2     1  UNL1        0.0294
      2 C          63.5607   89.3975   14.6658 C.2     1  UNL1        0.2320
      3 N          64.2360   90.3200   15.6368 N.2     1  UNL1       -0.0311
      4 C          65.0729   91.4579   15.1322 C.2     1  UNL1        0.3720
      5 N          65.8534   92.5228   15.8443 N.2     1  UNL1       -0.0308
      6 C          66.4973   93.3963   14.8088 C.2     1  UNL1        0.2359
      7 C          66.1148   92.8714   13.4567 C.2     1  UNL1        0.0521
      8 C          65.2345   91.6734   13.6566 C.2     1  UNL1        0.0744
      9 C          64.5592   90.7509   12.6856 C.3     1  UNL1        0.0645
     10 C          66.5382   93.4439   12.1365 C.ar    1  UNL1        0.0229
     11 C          66.1901   94.8605   11.7870 C.ar    1  UNL1        0.0045
     12 C          66.6136   95.4330   10.4669 C.ar    1  UNL1        0.0339
     13 C          67.3851   94.5890    9.4961 C.ar    1  UNL1        0.1254
     14 N          67.8085   95.1615    8.1759 N.pl3   1  UNL1       -0.3426
     15 N          67.7332   93.1724    9.8456 N.ar    1  UNL1       -0.2296
     16 C          67.3098   92.5999   11.1658 C.ar    1  UNL1        0.1004
     17 H          67.5801   96.0913    7.9466 H       1  UNL1        0.1437
     18 H          68.3149   94.6075    7.5388 H       1  UNL1        0.1437
     19 C          61.6302   88.3297   10.0713 C.ar    1  UNL1        0.1754
     20 C          62.3055   89.2522   11.0424 C.ar    1  UNL1        0.0401
     21 C          63.0469   88.6904   12.2191 C.ar    1  UNL1        0.0063
     22 C          63.1130   87.2060   12.4248 C.ar    1  UNL1        0.0401
     23 C          62.4377   86.2835   11.4538 C.ar    1  UNL1        0.1754
     24 C          61.6963   86.8454   10.2770 C.ar    1  UNL1        0.2061
     25 C          59.9692   90.0625    9.0771 C.3     1  UNL1        0.2526
     26 O          60.8888   88.8916    8.8947 O.3     1  UNL1       -0.4683
     27 O          62.5038   84.7992   11.6594 O.3     1  UNL1       -0.4683
     28 C          63.7225   84.0362   11.2316 C.3     1  UNL1        0.2526
     29 O          61.0210   85.9228    9.3060 O.3     1  UNL1       -0.4654
     30 C          61.6896   85.5806    8.0077 C.3     1  UNL1        0.2528
@<TRIPOS>BOND
     1    25    26    1
     2    26    19    1
     3    19    20   ar
     4    20    21   ar
     5    21     1    1
     6     1     2    2
     7     2     3    1
     8     3     4    2
     9     4     5    1
    10     5     6    2
    11     6     7    1
    12     7    10    1
    13    10    11   ar
    14    11    12   ar
    15    12    13   ar
    16    13    14    1
    17    13    15   ar
    18    15    16   ar
    19     7     8    2
    20     8     9    1
    21    21    22   ar
    22    22    23   ar
    23    23    27    1
    24    27    28    1
    25    23    24   ar
    26    24    29    1
    27    29    30    1
    28    24    19   ar
    29     9     1    1
    30     8     4    1
    31    16    10   ar
    32    14    17    1
    33    14    18    1
@<TRIPOS>MOLECULE
*****
 30 33 0 0 0
SMALL
GASTEIGER

@<TRIPOS>ATOM
      1 C          63.6899   89.5800   13.2103 C.2     1  UNL1        0.0294
      2 C          63.4993   89.3721   14.6835 C.2     1  UNL1        0.2320
      3 N          64.1499   90.3037   15.6627 N.2     1  UNL1       -0.0311
      4 C          64.9910   91.4432   15.1686 C.2     1  UNL1        0.3720
      5 N          65.7512   92.5162   15.8904 N.2     1  UNL1       -0.0308
      6 C          66.4115   93.3873   14.8632 C.2     1  UNL1        0.2359
      7 C          66.0595   92.8526   13.5066 C.2     1  UNL1        0.0521
      8 C          65.1816   91.6511   13.6954 C.2     1  UNL1        0.0744
      9 C          64.5310   90.7195   12.7162 C.3     1  UNL1        0.0645
     10 C          66.5068   93.4198   12.1920 C.ar    1  UNL1        0.0229
     11 C          66.2053   94.8489   11.8503 C.ar    1  UNL1        0.0045
     12 C          66.6527   95.4161   10.5357 C.ar    1  UNL1        0.0339
     13 C          67.4015   94.5543    9.5628 C.ar    1  UNL1        0.1254
     14 N          67.8489   95.1215    8.2482 N.pl3   1  UNL1       -0.3426
     15 N          67.7030   93.1252    9.9046 N.ar    1  UNL1       -0.2296
     16 C          67.2557   92.5580   11.2192 C.ar    1  UNL1        0.1004
     17 H          67.6510   96.0595    8.0239 H       1  UNL1        0.1437
     18 H          68.3404   94.5558    7.6097 H       1  UNL1        0.1437
     19 C          62.4609   86.2339   11.4657 C.ar    1  UNL1        0.1754
     20 C          63.1114   87.1655   12.4450 C.ar    1  UNL1        0.0401
     21 C          63.0393   88.6484   12.2310 C.ar    1  UNL1        0.0063
     22 C          62.3167   89.1997   11.0378 C.ar    1  UNL1        0.0401
     23 C          61.6661   88.2682   10.0585 C.ar    1  UNL1        0.1754
     24 C          61.7382   86.7852   10.2725 C.ar    1  UNL1        0.2061
     25 C          63.5151   84.1816   12.6601 C.3     1  UNL1        0.2526
     26 O          62.5330   84.7510   11.6797 O.3     1  UNL1       -0.4683
     27 O          60.9435   88.8195    8.8653 O.3     1  UNL1       -0.4683
     28 C          59.9278   89.9093    9.0411 C.3     1  UNL1        0.2526
     29 O          61.0877   85.8537    9.2932 O.3     1  UNL1       -0.4654
     30 C          59.9781   86.3467    8.4126 C.3     1  UNL1        0.2528
@<TRIPOS>BOND
     1    25    26    1
     2    26    19    1
     3    19    20   ar
     4    20    21   ar
     5    21     1    1
     6     1     2    2
     7     2     3    1
     8     3     4    2
     9     4     5    1
    10     5     6    2
    11     6     7    1
    12     7    10    1
    13    10    11   ar
    14    11    12   ar
    15    12    13   ar
    16    13    14    1
    17    13    15   ar
    18    15    16   ar
    19     7     8    2
    20     8     9    1
    21    21    22   ar
    22    22    23   ar
    23    23    27    1
    24    27    28    1
    25    23    24   ar
    26    24    29    1
    27    29    30    1
    28    24    19   ar
    29     9     1    1
    30     8     4    1
    31    16    10   ar
    32    14    17    1
    33    14    18    1
@<TRIPOS>MOLECULE
*****
 30 33 0 0 0
SMALL
GASTEIGER

@<TRIPOS>ATOM
      1 C          62.4512   85.4775   11.2084 C.2     1  UNL1        0.0294
      2 C          62.8504   84.0334   11.1369 C.2     1  UNL1        0.2320
      3 N          63.6556   83.4221   12.2450 N.2     1  UNL1       -0.0311
      4 C          64.0617   84.2549   13.4246 C.2     1  UNL1        0.3720
      5 N          64.8502   83.9303   14.6587 N.2     1  UNL1       -0.0308
      6 C          64.9383   85.1738   15.4929 C.2     1  UNL1        0.2359
      7 C          64.2043   86.2669   14.7744 C.2     1  UNL1        0.0521
      8 C          63.6625   85.6991   13.4961 C.2     1  UNL1        0.0744
      9 C          62.8572   86.3103   12.3880 C.3     1  UNL1        0.0645
     10 C          64.0407   87.6799   15.2505 C.ar    1  UNL1        0.0229
     11 C          64.5790   88.8147   14.4305 C.ar    1  UNL1        0.0045
     12 C          64.4154   90.2277   14.9067 C.ar    1  UNL1        0.0339
     13 C          63.7136   90.5059   16.2028 C.ar    1  UNL1        0.1254
     14 N          63.5500   91.9189   16.6790 N.pl3   1  UNL1       -0.3426
     15 N          63.1753   89.3711   17.0228 N.ar    1  UNL1       -0.2296
     16 C          63.3389   87.9581   16.5466 C.ar    1  UNL1        0.1004
     17 H          63.9033   92.6637   16.1408 H       1  UNL1        0.1437
     18 H          63.0894   92.1015   17.5297 H       1  UNL1        0.1437
     19 C          60.6130   85.9368    7.7212 C.ar    1  UNL1        0.1754
     20 C          61.4183   85.3255    8.8293 C.ar    1  UNL1        0.0401
     21 C          61.6459   86.0888   10.1003 C.ar    1  UNL1        0.0063
     22 C          61.0683   87.4635   10.2632 C.ar    1  UNL1        0.0401
     23 C          60.2630   88.0748    9.1552 C.ar    1  UNL1        0.1754
     24 C          60.0354   87.3115    7.8841 C.ar    1  UNL1        0.2061
     25 C          61.4913   84.3474    5.8632 C.3     1  UNL1        0.2526
     26 O          60.3854   85.1734    6.4502 O.3     1  UNL1       -0.4683
     27 O          59.6854   89.4495    9.3181 O.3     1  UNL1       -0.4683
     28 C          60.1136   90.3114   10.4688 C.3     1  UNL1        0.2526
     29 O          59.2301   87.9228    6.7761 O.3     1  UNL1       -0.4654
     30 C          59.3627   89.3856    6.4716 C.3     1  UNL1        0.2528
@<TRIPOS>BOND
     1    25    26    1
     2    26    19    1
     3    19    20   ar
     4    20    21   ar
     5    21     1    1
     6     1     2    2
     7     2     3    1
     8     3     4    2
     9     4     5    1
    10     5     6    2
    11     6     7    1
    12     7    10    1
    13    10    11   ar
    14    11    12   ar
    15    12    13   ar
    16    13    14    1
    17    13    15   ar
    18    15    16   ar
    19     7     8    2
    20     8     9    1
    21    21    22   ar
    22    22    23   ar
    23    23    27    1
    24    27    28    1
    25    23    24   ar
    26    24    29    1
    27    29    30    1
    28    24    19   ar
    29     9     1    1
    30     8     4    1
    31    16    10   ar
    32    14    17    1
    33    14    18    1
