@<TRIPOS>MOLECULE
*****
 19 20 0 0 0
SMALL
GASTEIGER

@<TRIPOS>ATOM
      1 C          64.3779   90.9882   14.4778 C.2     1  UNL1        0.0537
      2 C          65.7344   91.5783   14.7258 C.2     1  UNL1        0.0451
      3 C          66.4804   92.2407   13.6057 C.2     1  UNL1        0.1246
      4 O          67.8370   92.8308   13.8537 O.2     1  UNL1       -0.5089
      5 C          65.8698   92.3130   12.2375 C.3     1  UNL1        0.1569
      6 C          64.5133   91.7230   11.9895 C.2     1  UNL1        0.2562
      7 O          63.9026   91.7953   10.6213 O.2     1  UNL1       -0.2722
      8 N          63.7673   91.0606   13.1097 N.am    1  UNL1       -0.1829
      9 H          68.2185   92.7856   14.7084 H       1  UNL1        0.2917
     10 C          66.6158   92.9754   11.1174 C.ar    1  UNL1       -0.0067
     11 C          66.3990   94.4315   10.8296 C.ar    1  UNL1       -0.0034
     12 C          67.1449   95.0939    9.7095 C.ar    1  UNL1       -0.0003
     13 C          68.1078   94.3002    8.8770 C.ar    1  UNL1       -0.0000
     14 C          68.3246   92.8442    9.1647 C.ar    1  UNL1       -0.0003
     15 C          67.5786   92.1818   10.2849 C.ar    1  UNL1       -0.0034
     16 C          63.6319   90.3258   15.5980 C.3     1  UNL1        0.0433
     17 C          63.0718   88.1866   16.9617 C.3     1  UNL1        0.0004
     18 C          63.6851   88.8352   15.7562 C.3     1  UNL1        0.0057
     19 C          64.3515   87.9930   14.7089 C.3     1  UNL1        0.0004
@<TRIPOS>BOND
     1    17    18    1
     2    18    19    1
     3    18    16    1
     4    16     1    1
     5     1     2    1
     6     2     3    2
     7     3     4    1
     8     3     5    1
     9     5    10    1
    10    10    11   ar
    11    11    12   ar
    12    12    13   ar
    13    13    14   ar
    14    14    15   ar
    15     5     6    1
    16     6     7    2
    17     6     8    1
    18     8     1    2
    19    15    10   ar
    20     4     9    1
@<TRIPOS>MOLECULE
*****
 19 20 0 0 0
SMALL
GASTEIGER

@<TRIPOS>ATOM
      1 C          64.3403   90.9775   14.4347 C.2     1  UNL1        0.0537
      2 C          63.7492   91.0501   13.0580 C.2     1  UNL1        0.0451
      3 C          64.5074   91.7203   11.9507 C.2     1  UNL1        0.1246
      4 O          63.9163   91.7929   10.5739 O.2     1  UNL1       -0.5089
      5 C          65.8565   92.3179   12.2201 C.3     1  UNL1        0.1569
      6 C          66.4475   92.2453   13.5968 C.2     1  UNL1        0.2562
      7 O          67.7967   92.8429   13.8663 O.2     1  UNL1       -0.2722
      8 N          65.6894   91.5751   14.7041 N.am    1  UNL1       -0.1829
      9 H          63.0735   91.4196   10.4056 H       1  UNL1        0.2917
     10 C          66.6146   92.9881   11.1128 C.ar    1  UNL1       -0.0067
     11 C          67.5950   92.2030   10.2928 C.ar    1  UNL1       -0.0034
     12 C          68.3531   92.8732    9.1855 C.ar    1  UNL1       -0.0003
     13 C          68.1308   94.3285    8.8982 C.ar    1  UNL1       -0.0000
     14 C          67.1504   95.1136    9.7182 C.ar    1  UNL1       -0.0003
     15 C          66.3923   94.4434   10.8255 C.ar    1  UNL1       -0.0034
     16 C          63.5822   90.3073   15.5420 C.3     1  UNL1        0.0433
     17 C          64.3826   87.9829   14.7013 C.3     1  UNL1        0.0004
     18 C          63.6859   88.8228   15.7304 C.3     1  UNL1        0.0057
     19 C          63.0928   88.1781   16.9482 C.3     1  UNL1        0.0004
@<TRIPOS>BOND
     1    17    18    1
     2    18    19    1
     3    18    16    1
     4    16     1    1
     5     1     2    1
     6     2     3    2
     7     3     4    1
     8     3     5    1
     9     5    10    1
    10    10    11   ar
    11    11    12   ar
    12    12    13   ar
    13    13    14   ar
    14    14    15   ar
    15     5     6    1
    16     6     7    2
    17     6     8    1
    18     8     1    2
    19    15    10   ar
    20     4     9    1
@<TRIPOS>MOLECULE
*****
 19 20 0 0 0
SMALL
GASTEIGER

@<TRIPOS>ATOM
      1 C          65.5205   92.6082   11.5296 C.2     1  UNL1        0.0537
      2 C          64.3033   91.7677   11.2809 C.2     1  UNL1        0.0451
      3 C          63.8547   90.7741   12.3111 C.2     1  UNL1        0.1246
      4 O          62.6374   89.9335   12.0624 O.2     1  UNL1       -0.5089
      5 C          64.6233   90.6209   13.5901 C.3     1  UNL1        0.1569
      6 C          65.8405   91.4614   13.8388 C.2     1  UNL1        0.2562
      7 O          66.6092   91.3083   15.1178 O.2     1  UNL1       -0.2722
      8 N          66.2891   92.4551   12.8085 N.am    1  UNL1       -0.1829
      9 H          62.1573   90.0292   11.2634 H       1  UNL1        0.2917
     10 C          64.1747   89.6272   14.6203 C.ar    1  UNL1       -0.0067
     11 C          63.4587   90.0957   15.8523 C.ar    1  UNL1       -0.0034
     12 C          63.0101   89.1020   16.8826 C.ar    1  UNL1       -0.0003
     13 C          63.2775   87.6399   16.6808 C.ar    1  UNL1       -0.0000
     14 C          63.9935   87.1715   15.4488 C.ar    1  UNL1       -0.0003
     15 C          64.4421   88.1652   14.4186 C.ar    1  UNL1       -0.0034
     16 C          65.9691   93.6019   10.4994 C.3     1  UNL1        0.0433
     17 C          67.9687   92.0850    9.8280 C.3     1  UNL1        0.0004
     18 C          67.2876   93.4214    9.8074 C.3     1  UNL1        0.0057
     19 C          67.9251   94.5772    9.0948 C.3     1  UNL1        0.0004
@<TRIPOS>BOND
     1    17    18    1
     2    18    19    1
     3    18    16    1
     4    16     1    1
     5     1     2    1
     6     2     3    2
     7     3     4    1
     8     3     5    1
     9     5    10    1
    10    10    11   ar
    11    11    12   ar
    12    12    13   ar
    13    13    14   ar
    14    14    15   ar
    15     5     6    1
    16     6     7    2
    17     6     8    1
    18     8     1    2
    19    15    10   ar
    20     4     9    1
@<TRIPOS>MOLECULE
*****
 19 20 0 0 0
SMALL
GASTEIGER

@<TRIPOS>ATOM
      1 C          63.6616   87.8991   13.2484 C.2     1  UNL1        0.0537
      2 C          64.2820   87.0057   14.2813 C.2     1  UNL1        0.0451
      3 C          64.0384   85.5263   14.2372 C.2     1  UNL1        0.1246
      4 O          64.6588   84.6329   15.2702 O.2     1  UNL1       -0.5089
      5 C          63.1743   84.9403   13.1602 C.3     1  UNL1        0.1569
      6 C          62.5539   85.8337   12.1274 C.2     1  UNL1        0.2562
      7 O          61.6898   85.2477   11.0503 O.2     1  UNL1       -0.2722
      8 N          62.7976   87.3131   12.1715 N.am    1  UNL1       -0.1829
      9 H          65.1986   84.9990   15.9429 H       1  UNL1        0.2917
     10 C          62.9307   83.4609   13.1161 C.ar    1  UNL1       -0.0067
     11 C          62.1665   82.7933   14.2208 C.ar    1  UNL1       -0.0034
     12 C          61.9229   81.3139   14.1767 C.ar    1  UNL1       -0.0003
     13 C          62.4434   80.5020   13.0279 C.ar    1  UNL1       -0.0000
     14 C          63.2076   81.1695   11.9232 C.ar    1  UNL1       -0.0003
     15 C          63.4512   82.6490   11.9673 C.ar    1  UNL1       -0.0034
     16 C          63.9053   89.3786   13.2925 C.3     1  UNL1        0.0433
     17 C          65.5925   90.8341   14.6283 C.3     1  UNL1        0.0004
     18 C          64.3265   90.0314   14.5756 C.3     1  UNL1        0.0057
     19 C          63.4818   89.8814   15.8061 C.3     1  UNL1        0.0004
@<TRIPOS>BOND
     1    17    18    1
     2    18    19    1
     3    18    16    1
     4    16     1    1
     5     1     2    1
     6     2     3    2
     7     3     4    1
     8     3     5    1
     9     5    10    1
    10    10    11   ar
    11    11    12   ar
    12    12    13   ar
    13    13    14   ar
    14    14    15   ar
    15     5     6    1
    16     6     7    2
    17     6     8    1
    18     8     1    2
    19    15    10   ar
    20     4     9    1
@<TRIPOS>MOLECULE
*****
 19 20 0 0 0
SMALL
GASTEIGER

@<TRIPOS>ATOM
      1 C          63.5397   90.0503   12.9393 C.2     1  UNL1        0.0537
      2 C          62.9575   90.6963   11.7172 C.2     1  UNL1        0.0451
      3 C          62.3118   89.8527   10.6583 C.2     1  UNL1        0.1246
      4 O          61.7296   90.4988    9.4361 O.2     1  UNL1       -0.5089
      5 C          62.2483   88.3630   10.8215 C.3     1  UNL1        0.1569
      6 C          62.8305   87.7169   12.0436 C.2     1  UNL1        0.2562
      7 O          62.7670   86.2271   12.2069 O.2     1  UNL1       -0.2722
      8 N          63.4762   88.5606   13.1025 N.am    1  UNL1       -0.1829
      9 H          61.7693   91.4294    9.3341 H       1  UNL1        0.2917
     10 C          61.6026   87.5193    9.7626 C.ar    1  UNL1       -0.0067
     11 C          62.4282   86.5514    8.9679 C.ar    1  UNL1       -0.0034
     12 C          61.7825   85.7078    7.9089 C.ar    1  UNL1       -0.0003
     13 C          60.3112   85.8320    7.6447 C.ar    1  UNL1       -0.0000
     14 C          59.4856   86.7998    8.4394 C.ar    1  UNL1       -0.0003
     15 C          60.1313   87.6435    9.4983 C.ar    1  UNL1       -0.0034
     16 C          64.1854   90.8940   13.9982 C.3     1  UNL1        0.0433
     17 C          66.6746   91.3293   14.6018 C.3     1  UNL1        0.0004
     18 C          65.4889   91.5812   13.7182 C.3     1  UNL1        0.0057
     19 C          65.6068   92.5204   12.5546 C.3     1  UNL1        0.0004
@<TRIPOS>BOND
     1    17    18    1
     2    18    19    1
     3    18    16    1
     4    16     1    1
     5     1     2    1
     6     2     3    2
     7     3     4    1
     8     3     5    1
     9     5    10    1
    10    10    11   ar
    11    11    12   ar
    12    12    13   ar
    13    13    14   ar
    14    14    15   ar
    15     5     6    1
    16     6     7    2
    17     6     8    1
    18     8     1    2
    19    15    10   ar
    20     4     9    1
@<TRIPOS>MOLECULE
*****
 19 20 0 0 0
SMALL
GASTEIGER

@<TRIPOS>ATOM
      1 C          62.9412   90.4070   11.1404 C.2     1  UNL1        0.0537
      2 C          63.1991   89.6313   12.3980 C.2     1  UNL1        0.0451
      3 C          64.2509   90.0941   13.3622 C.2     1  UNL1        0.1246
      4 O          64.5088   89.3184   14.6199 O.2     1  UNL1       -0.5089
      5 C          65.0447   91.3324   13.0687 C.3     1  UNL1        0.1569
      6 C          64.7868   92.1081   11.8110 C.2     1  UNL1        0.2562
      7 O          65.5807   93.3465   11.5174 O.2     1  UNL1       -0.2722
      8 N          63.7350   91.6453   10.8468 N.am    1  UNL1       -0.1829
      9 H          64.0129   88.5448   14.8033 H       1  UNL1        0.2917
     10 C          66.0965   91.7952   14.0328 C.ar    1  UNL1       -0.0067
     11 C          67.5441   91.7487   13.6428 C.ar    1  UNL1       -0.0034
     12 C          68.5959   92.2115   14.6069 C.ar    1  UNL1       -0.0003
     13 C          68.2001   92.7207   15.9612 C.ar    1  UNL1       -0.0000
     14 C          66.7525   92.7671   16.3512 C.ar    1  UNL1       -0.0003
     15 C          65.7007   92.3043   15.3871 C.ar    1  UNL1       -0.0034
     16 C          61.8894   89.9442   10.1762 C.3     1  UNL1        0.0433
     17 C          59.6201   90.4865   11.3192 C.3     1  UNL1        0.0004
     18 C          60.5510   89.4963   10.6843 C.3     1  UNL1        0.0057
     19 C          60.1435   88.0583   10.5575 C.3     1  UNL1        0.0004
@<TRIPOS>BOND
     1    17    18    1
     2    18    19    1
     3    18    16    1
     4    16     1    1
     5     1     2    1
     6     2     3    2
     7     3     4    1
     8     3     5    1
     9     5    10    1
    10    10    11   ar
    11    11    12   ar
    12    12    13   ar
    13    13    14   ar
    14    14    15   ar
    15     5     6    1
    16     6     7    2
    17     6     8    1
    18     8     1    2
    19    15    10   ar
    20     4     9    1
@<TRIPOS>MOLECULE
*****
 19 20 0 0 0
SMALL
GASTEIGER

@<TRIPOS>ATOM
      1 C          62.9444   90.3294   11.1657 C.2     1  UNL1        0.0537
      2 C          63.7314   91.5678   10.8549 C.2     1  UNL1        0.0451
      3 C          64.7802   92.0501   11.8127 C.2     1  UNL1        0.1246
      4 O          65.5673   93.2887   11.5017 O.2     1  UNL1       -0.5089
      5 C          65.0420   91.2939   13.0813 C.3     1  UNL1        0.1569
      6 C          64.2550   90.0554   13.3922 C.2     1  UNL1        0.2562
      7 O          64.5167   89.2992   14.6610 O.2     1  UNL1       -0.2722
      8 N          63.2061   89.5732   12.4344 N.am    1  UNL1       -0.1829
      9 H          65.4037   93.7611   10.7092 H       1  UNL1        0.2917
     10 C          66.0908   91.7762   14.0392 C.ar    1  UNL1       -0.0067
     11 C          65.6945   92.2710   15.3986 C.ar    1  UNL1       -0.0034
     12 C          66.7433   92.7533   16.3564 C.ar    1  UNL1       -0.0003
     13 C          68.1884   92.7408   15.9548 C.ar    1  UNL1       -0.0000
     14 C          68.5848   92.2460   14.5953 C.ar    1  UNL1       -0.0003
     15 C          67.5360   91.7637   13.6375 C.ar    1  UNL1       -0.0034
     16 C          61.8955   89.8471   10.2079 C.3     1  UNL1        0.0433
     17 C          60.1210   88.0024   10.6531 C.3     1  UNL1        0.0004
     18 C          60.5448   89.4399   10.7175 C.3     1  UNL1        0.0057
     19 C          59.6178   90.4701   11.2915 C.3     1  UNL1        0.0004
@<TRIPOS>BOND
     1    17    18    1
     2    18    19    1
     3    18    16    1
     4    16     1    1
     5     1     2    1
     6     2     3    2
     7     3     4    1
     8     3     5    1
     9     5    10    1
    10    10    11   ar
    11    11    12   ar
    12    12    13   ar
    13    13    14   ar
    14    14    15   ar
    15     5     6    1
    16     6     7    2
    17     6     8    1
    18     8     1    2
    19    15    10   ar
    20     4     9    1
@<TRIPOS>MOLECULE
*****
 19 20 0 0 0
SMALL
GASTEIGER

@<TRIPOS>ATOM
      1 C          63.5230   83.8746   11.2000 C.2     1  UNL1        0.0537
      2 C          62.5719   84.7657   11.9424 C.2     1  UNL1        0.0451
      3 C          61.7213   85.7464   11.1910 C.2     1  UNL1        0.1246
      4 O          60.7701   86.6375   11.9335 O.2     1  UNL1       -0.5089
      5 C          61.8218   85.8360    9.6970 C.3     1  UNL1        0.1569
      6 C          62.7729   84.9449    8.9546 C.2     1  UNL1        0.2562
      7 O          62.8735   85.0345    7.4606 O.2     1  UNL1       -0.2722
      8 N          63.6235   83.9642    9.7061 N.am    1  UNL1       -0.1829
      9 H          60.7073   86.5815   12.8667 H       1  UNL1        0.2917
     10 C          60.9712   86.8167    8.9456 C.ar    1  UNL1       -0.0067
     11 C          59.9571   86.3256    7.9555 C.ar    1  UNL1       -0.0034
     12 C          59.1065   87.3063    7.2040 C.ar    1  UNL1       -0.0003
     13 C          59.2700   88.7781    7.4426 C.ar    1  UNL1       -0.0000
     14 C          60.2841   89.2692    8.4327 C.ar    1  UNL1       -0.0003
     15 C          61.1347   88.2885    9.1842 C.ar    1  UNL1       -0.0034
     16 C          64.3736   82.8939   11.9515 C.3     1  UNL1        0.0433
     17 C          63.9274   82.6009   14.4941 C.3     1  UNL1        0.0004
     18 C          63.7866   82.1063   13.0850 C.3     1  UNL1        0.0057
     19 C          63.0589   80.8238   12.8095 C.3     1  UNL1        0.0004
@<TRIPOS>BOND
     1    17    18    1
     2    18    19    1
     3    18    16    1
     4    16     1    1
     5     1     2    1
     6     2     3    2
     7     3     4    1
     8     3     5    1
     9     5    10    1
    10    10    11   ar
    11    11    12   ar
    12    12    13   ar
    13    13    14   ar
    14    14    15   ar
    15     5     6    1
    16     6     7    2
    17     6     8    1
    18     8     1    2
    19    15    10   ar
    20     4     9    1
@<TRIPOS>MOLECULE
*****
 19 20 0 0 0
SMALL
GASTEIGER

@<TRIPOS>ATOM
      1 C          63.5216   83.8606   11.1835 C.2     1  UNL1        0.0537
      2 C          62.5622   84.7453   11.9228 C.2     1  UNL1        0.0451
      3 C          61.7095   85.7223   11.1688 C.2     1  UNL1        0.1246
      4 O          60.7500   86.6070   11.9082 O.2     1  UNL1       -0.5089
      5 C          61.8163   85.8146    9.6755 C.3     1  UNL1        0.1569
      6 C          62.7758   84.9298    8.9362 C.2     1  UNL1        0.2562
      7 O          62.8826   85.0221    7.4428 O.2     1  UNL1       -0.2722
      8 N          63.6284   83.9529    9.6901 N.am    1  UNL1       -0.1829
      9 H          60.6833   86.5494   12.8411 H       1  UNL1        0.2917
     10 C          60.9636   86.7915    8.9215 C.ar    1  UNL1       -0.0067
     11 C          61.1084   88.2632    9.1727 C.ar    1  UNL1       -0.0034
     12 C          60.2557   89.2402    8.4187 C.ar    1  UNL1       -0.0003
     13 C          59.2582   88.7454    7.4136 C.ar    1  UNL1       -0.0000
     14 C          59.1135   87.2737    7.1624 C.ar    1  UNL1       -0.0003
     15 C          59.9662   86.2968    7.9164 C.ar    1  UNL1       -0.0034
     16 C          64.3743   82.8837   11.9374 C.3     1  UNL1        0.0433
     17 C          63.0684   80.8237   12.8324 C.3     1  UNL1        0.0004
     18 C          63.7943   82.1117   13.0853 C.3     1  UNL1        0.0057
     19 C          63.9401   82.6279   14.4862 C.3     1  UNL1        0.0004
@<TRIPOS>BOND
     1    17    18    1
     2    18    19    1
     3    18    16    1
     4    16     1    1
     5     1     2    1
     6     2     3    2
     7     3     4    1
     8     3     5    1
     9     5    10    1
    10    10    11   ar
    11    11    12   ar
    12    12    13   ar
    13    13    14   ar
    14    14    15   ar
    15     5     6    1
    16     6     7    2
    17     6     8    1
    18     8     1    2
    19    15    10   ar
    20     4     9    1
