@<TRIPOS>MOLECULE
*****
 26 28 0 0 0
SMALL
GASTEIGER

@<TRIPOS>ATOM
      1 C          63.7673   87.2889   13.4594 C.ar    1  UNL1        0.0002
      2 C          63.0878   87.8659   12.2531 C.ar    1  UNL1        0.0013
      3 C          63.0726   89.3505   12.0392 C.ar    1  UNL1        0.0159
      4 C          63.7369   90.2581   13.0317 C.ar    1  UNL1        0.0648
      5 C          64.4164   89.6810   14.2381 C.ar    1  UNL1        0.0159
      6 C          64.4316   88.1964   14.4519 C.ar    1  UNL1        0.0013
      7 C          62.6750   82.4907   11.7907 C.3     1  UNL1        0.0521
      8 C          63.2364   83.4052   12.8389 C.ar    1  UNL1        0.0594
      9 C          63.2212   84.8897   12.6251 C.ar    1  UNL1        0.0147
     10 C          63.7825   85.8042   13.6733 C.ar    1  UNL1        0.0027
     11 C          64.3590   85.2341   14.9352 C.ar    1  UNL1        0.0207
     12 C          64.3742   83.7495   15.1490 C.ar    1  UNL1        0.0984
     13 N          63.8128   82.8350   14.1008 N.ar    1  UNL1       -0.2481
     14 N          63.7217   91.7426   12.8178 N.pl3   1  UNL1       -0.2150
     15 H          63.0206   92.2930   13.2359 H       1  UNL1        0.1737
     16 S          64.7747   92.3887   11.9670 S.O2    1  UNL1        0.0736
     17 O          65.4960   92.8399   13.2024 O.2     1  UNL1       -0.1499
     18 O          64.0534   91.9374   10.7317 O.2     1  UNL1       -0.1499
     19 C          65.8277   93.0347   11.1162 C.ar    1  UNL1        0.1268
     20 C          65.8776   94.5285   10.9900 C.ar    1  UNL1        0.0316
     21 C          66.9306   95.1745   10.1392 C.ar    1  UNL1        0.0599
     22 CL         66.9805   96.6684   10.0130 Cl      1  UNL1       -0.0822
     23 C          67.9337   94.3267    9.4146 C.ar    1  UNL1        0.0229
     24 C          67.8837   92.8329    9.5408 C.ar    1  UNL1        0.0599
     25 CL         68.8869   91.9850    8.8163 Cl      1  UNL1       -0.0822
     26 C          66.8308   92.1869   10.3917 C.ar    1  UNL1        0.0316
@<TRIPOS>BOND
     1     7     8    1
     2     8     9   ar
     3     9    10   ar
     4    10     1    1
     5     1     2   ar
     6     2     3   ar
     7     3     4   ar
     8     4    14    1
     9    14    16    1
    10    16    17    2
    11    16    18    2
    12    16    19    1
    13    19    20   ar
    14    20    21   ar
    15    21    22    1
    16    21    23   ar
    17    23    24   ar
    18    24    25    1
    19    24    26   ar
    20     4     5   ar
    21     5     6   ar
    22    10    11   ar
    23    11    12   ar
    24    12    13   ar
    25    13     8   ar
    26     6     1   ar
    27    26    19   ar
    28    14    15    1
@<TRIPOS>MOLECULE
*****
 26 28 0 0 0
SMALL
GASTEIGER

@<TRIPOS>ATOM
      1 C          63.7742   87.2848   13.4588 C.ar    1  UNL1        0.0002
      2 C          63.1008   87.8592   12.2478 C.ar    1  UNL1        0.0013
      3 C          63.0854   89.3434   12.0315 C.ar    1  UNL1        0.0159
      4 C          63.7433   90.2533   13.0262 C.ar    1  UNL1        0.0648
      5 C          64.4167   89.6788   14.2372 C.ar    1  UNL1        0.0159
      6 C          64.4322   88.1945   14.4535 C.ar    1  UNL1        0.0013
      7 C          62.6752   82.4841   11.8017 C.3     1  UNL1        0.0521
      8 C          63.2401   83.4002   12.8465 C.ar    1  UNL1        0.0594
      9 C          63.2247   84.8844   12.6303 C.ar    1  UNL1        0.0147
     10 C          63.7896   85.8005   13.6751 C.ar    1  UNL1        0.0027
     11 C          64.3699   85.2323   14.9363 C.ar    1  UNL1        0.0207
     12 C          64.3852   83.7481   15.1525 C.ar    1  UNL1        0.0984
     13 N          63.8204   82.8320   14.1077 N.ar    1  UNL1       -0.2481
     14 N          63.7279   91.7375   12.8098 N.pl3   1  UNL1       -0.2150
     15 H          63.0247   92.2880   13.2241 H       1  UNL1        0.1737
     16 S          64.7839   92.3829   11.9623 S.O2    1  UNL1        0.0736
     17 O          64.0633   91.9367   10.7247 O.2     1  UNL1       -0.1499
     18 O          65.5045   92.8291   13.1999 O.2     1  UNL1       -0.1499
     19 C          65.8399   93.0283   11.1147 C.ar    1  UNL1        0.1268
     20 C          66.8470   92.1801   10.3962 C.ar    1  UNL1        0.0316
     21 C          67.9030   92.8256    9.5487 C.ar    1  UNL1        0.0599
     22 CL         68.9101   91.9773    8.8302 Cl      1  UNL1       -0.0822
     23 C          67.9518   94.3192    9.4197 C.ar    1  UNL1        0.0229
     24 C          66.9447   95.1673   10.1382 C.ar    1  UNL1        0.0599
     25 CL         66.9936   96.6610   10.0091 Cl      1  UNL1       -0.0822
     26 C          65.8888   94.5219   10.9857 C.ar    1  UNL1        0.0316
@<TRIPOS>BOND
     1     7     8    1
     2     8     9   ar
     3     9    10   ar
     4    10     1    1
     5     1     2   ar
     6     2     3   ar
     7     3     4   ar
     8     4    14    1
     9    14    16    1
    10    16    17    2
    11    16    18    2
    12    16    19    1
    13    19    20   ar
    14    20    21   ar
    15    21    22    1
    16    21    23   ar
    17    23    24   ar
    18    24    25    1
    19    24    26   ar
    20     4     5   ar
    21     5     6   ar
    22    10    11   ar
    23    11    12   ar
    24    12    13   ar
    25    13     8   ar
    26     6     1   ar
    27    26    19   ar
    28    14    15    1
@<TRIPOS>MOLECULE
*****
 26 28 0 0 0
SMALL
GASTEIGER

@<TRIPOS>ATOM
      1 C          64.4787   89.6228   15.0002 C.ar    1  UNL1        0.0002
      2 C          63.6770   89.5111   16.2631 C.ar    1  UNL1        0.0013
      3 C          63.1637   88.1744   16.7098 C.ar    1  UNL1        0.0159
      4 C          63.4521   86.9493   15.8937 C.ar    1  UNL1        0.0648
      5 C          64.2538   87.0610   14.6309 C.ar    1  UNL1        0.0159
      6 C          64.7672   88.3978   14.1842 C.ar    1  UNL1        0.0013
      7 C          65.2800   93.1034   11.2261 C.3     1  UNL1        0.0521
      8 C          65.3927   92.6999   12.6664 C.ar    1  UNL1        0.0594
      9 C          64.8794   91.3631   13.1132 C.ar    1  UNL1        0.0147
     10 C          64.9920   90.9597   14.5535 C.ar    1  UNL1        0.0027
     11 C          65.6180   91.8929   15.5471 C.ar    1  UNL1        0.0207
     12 C          66.1313   93.2296   15.1003 C.ar    1  UNL1        0.0984
     13 N          66.0186   93.6331   13.6600 N.ar    1  UNL1       -0.2481
     14 N          62.9388   85.6126   16.3405 N.pl3   1  UNL1       -0.2150
     15 H          62.6706   85.4765   17.2779 H       1  UNL1        0.1737
     16 S          62.8341   84.4831   15.3589 S.O2    1  UNL1        0.0736
     17 O          61.4102   84.8607   15.0764 O.2     1  UNL1       -0.1499
     18 O          64.2580   84.1056   15.6415 O.2     1  UNL1       -0.1499
     19 C          62.7294   83.3537   14.3774 C.ar    1  UNL1        0.1268
     20 C          61.8280   82.1901   14.6663 C.ar    1  UNL1        0.0316
     21 C          61.7233   81.0607   13.6848 C.ar    1  UNL1        0.0599
     22 CL         60.8218   79.8971   13.9737 Cl      1  UNL1       -0.0822
     23 C          62.5200   81.0948   12.4144 C.ar    1  UNL1        0.0229
     24 C          63.4215   82.2583   12.1255 C.ar    1  UNL1        0.0599
     25 CL         64.2183   82.2925   10.8550 Cl      1  UNL1       -0.0822
     26 C          63.5261   83.3878   13.1070 C.ar    1  UNL1        0.0316
@<TRIPOS>BOND
     1     7     8    1
     2     8     9   ar
     3     9    10   ar
     4    10     1    1
     5     1     2   ar
     6     2     3   ar
     7     3     4   ar
     8     4    14    1
     9    14    16    1
    10    16    17    2
    11    16    18    2
    12    16    19    1
    13    19    20   ar
    14    20    21   ar
    15    21    22    1
    16    21    23   ar
    17    23    24   ar
    18    24    25    1
    19    24    26   ar
    20     4     5   ar
    21     5     6   ar
    22    10    11   ar
    23    11    12   ar
    24    12    13   ar
    25    13     8   ar
    26     6     1   ar
    27    26    19   ar
    28    14    15    1
@<TRIPOS>MOLECULE
*****
 26 28 0 0 0
SMALL
GASTEIGER

@<TRIPOS>ATOM
      1 C          64.4872   89.6350   14.9724 C.ar    1  UNL1        0.0002
      2 C          63.6733   89.5215   16.2272 C.ar    1  UNL1        0.0013
      3 C          63.1500   88.1852   16.6634 C.ar    1  UNL1        0.0159
      4 C          63.4408   86.9622   15.8448 C.ar    1  UNL1        0.0648
      5 C          64.2547   87.0758   14.5900 C.ar    1  UNL1        0.0159
      6 C          64.7780   88.4122   14.1538 C.ar    1  UNL1        0.0013
      7 C          65.3339   93.1303   11.2218 C.3     1  UNL1        0.0521
      8 C          65.4338   92.7191   12.6609 C.ar    1  UNL1        0.0594
      9 C          64.9106   91.3827   13.0971 C.ar    1  UNL1        0.0147
     10 C          65.0105   90.9715   14.5362 C.ar    1  UNL1        0.0027
     11 C          65.6336   91.8967   15.5390 C.ar    1  UNL1        0.0207
     12 C          66.1568   93.2330   15.1028 C.ar    1  UNL1        0.0984
     13 N          66.0569   93.6442   13.6637 N.ar    1  UNL1       -0.2481
     14 N          62.9175   85.6259   16.2810 N.pl3   1  UNL1       -0.2150
     15 H          62.6230   85.4922   17.2109 H       1  UNL1        0.1737
     16 S          62.8430   84.4932   15.3005 S.O2    1  UNL1        0.0736
     17 O          61.4239   84.8614   14.9830 O.2     1  UNL1       -0.1499
     18 O          64.2620   84.1249   15.6180 O.2     1  UNL1       -0.1499
     19 C          62.7684   83.3605   14.3200 C.ar    1  UNL1        0.1268
     20 C          63.5212   83.4387   13.0250 C.ar    1  UNL1        0.0316
     21 C          63.4466   82.3060   12.0445 C.ar    1  UNL1        0.0599
     22 CL         64.1995   82.3843   10.7494 Cl      1  UNL1       -0.0822
     23 C          62.6193   81.0950   12.3590 C.ar    1  UNL1        0.0229
     24 C          61.8665   81.0168   13.6540 C.ar    1  UNL1        0.0599
     25 CL         61.0391   79.8057   13.9686 Cl      1  UNL1       -0.0822
     26 C          61.9410   82.1495   14.6345 C.ar    1  UNL1        0.0316
@<TRIPOS>BOND
     1     7     8    1
     2     8     9   ar
     3     9    10   ar
     4    10     1    1
     5     1     2   ar
     6     2     3   ar
     7     3     4   ar
     8     4    14    1
     9    14    16    1
    10    16    17    2
    11    16    18    2
    12    16    19    1
    13    19    20   ar
    14    20    21   ar
    15    21    22    1
    16    21    23   ar
    17    23    24   ar
    18    24    25    1
    19    24    26   ar
    20     4     5   ar
    21     5     6   ar
    22    10    11   ar
    23    11    12   ar
    24    12    13   ar
    25    13     8   ar
    26     6     1   ar
    27    26    19   ar
    28    14    15    1
@<TRIPOS>MOLECULE
*****
 26 28 0 0 0
SMALL
GASTEIGER

@<TRIPOS>ATOM
      1 C          62.7470   85.4141   11.7504 C.ar    1  UNL1        0.0002
      2 C          61.8467   86.1048   10.7695 C.ar    1  UNL1        0.0013
      3 C          61.6849   87.5952   10.8205 C.ar    1  UNL1        0.0159
      4 C          62.4236   88.3949   11.8525 C.ar    1  UNL1        0.0648
      5 C          63.3239   87.7041   12.8334 C.ar    1  UNL1        0.0159
      6 C          63.4856   86.2137   12.7824 C.ar    1  UNL1        0.0013
      7 C          61.9584   80.7276   13.8516 C.3     1  UNL1        0.0521
      8 C          62.5144   81.5804   12.7500 C.ar    1  UNL1        0.0594
      9 C          62.3527   83.0708   12.8010 C.ar    1  UNL1        0.0147
     10 C          62.9087   83.9236   11.6994 C.ar    1  UNL1        0.0027
     11 C          63.6263   83.2861   10.5468 C.ar    1  UNL1        0.0207
     12 C          63.7880   81.7958   10.4958 C.ar    1  UNL1        0.0984
     13 N          63.2320   80.9429   11.5974 N.ar    1  UNL1       -0.2481
     14 N          62.2619   89.8852   11.9035 N.pl3   1  UNL1       -0.2150
     15 H          61.3906   90.2932   11.6947 H       1  UNL1        0.1737
     16 S          63.4277   90.7539   12.2726 S.O2    1  UNL1        0.0736
     17 O          63.1069   90.5669   13.7259 O.2     1  UNL1       -0.1499
     18 O          63.7484   90.9410   10.8193 O.2     1  UNL1       -0.1499
     19 C          64.5934   91.6227   12.6418 C.ar    1  UNL1        0.1268
     20 C          65.3273   91.3861   13.9284 C.ar    1  UNL1        0.0316
     21 C          66.4931   92.2548   14.2976 C.ar    1  UNL1        0.0599
     22 CL         67.2270   92.0183   15.5843 Cl      1  UNL1       -0.0822
     23 C          66.9250   93.3601   13.3801 C.ar    1  UNL1        0.0229
     24 C          66.1911   93.5967   12.0935 C.ar    1  UNL1        0.0599
     25 CL         66.6230   94.7020   11.1759 Cl      1  UNL1       -0.0822
     26 C          65.0253   92.7279   11.7243 C.ar    1  UNL1        0.0316
@<TRIPOS>BOND
     1     7     8    1
     2     8     9   ar
     3     9    10   ar
     4    10     1    1
     5     1     2   ar
     6     2     3   ar
     7     3     4   ar
     8     4    14    1
     9    14    16    1
    10    16    17    2
    11    16    18    2
    12    16    19    1
    13    19    20   ar
    14    20    21   ar
    15    21    22    1
    16    21    23   ar
    17    23    24   ar
    18    24    25    1
    19    24    26   ar
    20     4     5   ar
    21     5     6   ar
    22    10    11   ar
    23    11    12   ar
    24    12    13   ar
    25    13     8   ar
    26     6     1   ar
    27    26    19   ar
    28    14    15    1
@<TRIPOS>MOLECULE
*****
 26 28 0 0 0
SMALL
GASTEIGER

@<TRIPOS>ATOM
      1 C          62.7452   85.4219   11.7557 C.ar    1  UNL1        0.0002
      2 C          63.4785   86.2245   12.7892 C.ar    1  UNL1        0.0013
      3 C          63.3190   87.7153   12.8332 C.ar    1  UNL1        0.0159
      4 C          62.4262   88.4037   11.8436 C.ar    1  UNL1        0.0648
      5 C          61.6929   87.6011   10.8101 C.ar    1  UNL1        0.0159
      6 C          61.8524   86.1102   10.7661 C.ar    1  UNL1        0.0013
      7 C          61.9220   80.7441   13.8630 C.3     1  UNL1        0.0521
      8 C          62.4931   81.5922   12.7654 C.ar    1  UNL1        0.0594
      9 C          62.3336   83.0830   12.8093 C.ar    1  UNL1        0.0147
     10 C          62.9047   83.9310   11.7117 C.ar    1  UNL1        0.0027
     11 C          63.6352   83.2882   10.5702 C.ar    1  UNL1        0.0207
     12 C          63.7947   81.7974   10.5263 C.ar    1  UNL1        0.0984
     13 N          63.2236   80.9494   11.6239 N.ar    1  UNL1       -0.2481
     14 N          62.2668   89.8945   11.8876 N.pl3   1  UNL1       -0.2150
     15 H          61.3979   90.3032   11.6702 H       1  UNL1        0.1737
     16 S          63.4311   90.7626   12.2629 S.O2    1  UNL1        0.0736
     17 O          63.7790   90.9228   10.8126 O.2     1  UNL1       -0.1499
     18 O          63.0832   90.6023   13.7131 O.2     1  UNL1       -0.1499
     19 C          64.5954   91.6306   12.6382 C.ar    1  UNL1        0.1268
     20 C          65.0357   92.7326   11.7208 C.ar    1  UNL1        0.0316
     21 C          66.2000   93.6007   12.0960 C.ar    1  UNL1        0.0599
     22 CL         66.6403   94.7028   11.1786 Cl      1  UNL1       -0.0822
     23 C          66.9240   93.3668   13.3887 C.ar    1  UNL1        0.0229
     24 C          66.4837   92.2648   14.3061 C.ar    1  UNL1        0.0599
     25 CL         67.2077   92.0308   15.5989 Cl      1  UNL1       -0.0822
     26 C          65.3194   91.3967   13.9308 C.ar    1  UNL1        0.0316
@<TRIPOS>BOND
     1     7     8    1
     2     8     9   ar
     3     9    10   ar
     4    10     1    1
     5     1     2   ar
     6     2     3   ar
     7     3     4   ar
     8     4    14    1
     9    14    16    1
    10    16    17    2
    11    16    18    2
    12    16    19    1
    13    19    20   ar
    14    20    21   ar
    15    21    22    1
    16    21    23   ar
    17    23    24   ar
    18    24    25    1
    19    24    26   ar
    20     4     5   ar
    21     5     6   ar
    22    10    11   ar
    23    11    12   ar
    24    12    13   ar
    25    13     8   ar
    26     6     1   ar
    27    26    19   ar
    28    14    15    1
@<TRIPOS>MOLECULE
*****
 26 28 0 0 0
SMALL
GASTEIGER

@<TRIPOS>ATOM
      1 C          63.0921   87.0247   12.2631 C.ar    1  UNL1        0.0002
      2 C          62.4658   87.8643   11.1894 C.ar    1  UNL1        0.0013
      3 C          62.5613   89.3598   11.2555 C.ar    1  UNL1        0.0159
      4 C          63.2829   90.0157   12.3953 C.ar    1  UNL1        0.0648
      5 C          63.9092   89.1760   13.4689 C.ar    1  UNL1        0.0159
      6 C          63.8138   87.6805   13.4028 C.ar    1  UNL1        0.0013
      7 C          62.3177   82.4566   14.6153 C.3     1  UNL1        0.0521
      8 C          62.6095   83.2451   13.3731 C.ar    1  UNL1        0.0594
      9 C          62.7049   84.7406   13.4392 C.ar    1  UNL1        0.0147
     10 C          62.9967   85.5291   12.1970 C.ar    1  UNL1        0.0027
     11 C          63.1930   84.8222   10.8887 C.ar    1  UNL1        0.0207
     12 C          63.0975   83.3267   10.8226 C.ar    1  UNL1        0.0984
     13 N          62.8058   82.5382   12.0648 N.ar    1  UNL1       -0.2481
     14 N          63.3784   91.5111   12.4613 N.pl3   1  UNL1       -0.2150
     15 H          62.7152   92.0244   12.9772 H       1  UNL1        0.1737
     16 S          64.4841   92.2247   11.7415 S.O2    1  UNL1        0.0736
     17 O          63.7828   91.9941   10.4357 O.2     1  UNL1       -0.1499
     18 O          65.1854   92.4552   13.0473 O.2     1  UNL1       -0.1499
     19 C          65.5899   92.9382   11.0217 C.ar    1  UNL1        0.1268
     20 C          65.6590   94.4363   11.0500 C.ar    1  UNL1        0.0316
     21 C          66.7648   95.1498   10.3302 C.ar    1  UNL1        0.0599
     22 CL         66.8339   96.6480   10.3585 Cl      1  UNL1       -0.0822
     23 C          67.8014   94.3653    9.5820 C.ar    1  UNL1        0.0229
     24 C          67.7323   92.8671    9.5537 C.ar    1  UNL1        0.0599
     25 CL         68.7689   92.0825    8.8055 Cl      1  UNL1       -0.0822
     26 C          66.6265   92.1536   10.2735 C.ar    1  UNL1        0.0316
@<TRIPOS>BOND
     1     7     8    1
     2     8     9   ar
     3     9    10   ar
     4    10     1    1
     5     1     2   ar
     6     2     3   ar
     7     3     4   ar
     8     4    14    1
     9    14    16    1
    10    16    17    2
    11    16    18    2
    12    16    19    1
    13    19    20   ar
    14    20    21   ar
    15    21    22    1
    16    21    23   ar
    17    23    24   ar
    18    24    25    1
    19    24    26   ar
    20     4     5   ar
    21     5     6   ar
    22    10    11   ar
    23    11    12   ar
    24    12    13   ar
    25    13     8   ar
    26     6     1   ar
    27    26    19   ar
    28    14    15    1
@<TRIPOS>MOLECULE
*****
 26 28 0 0 0
SMALL
GASTEIGER

@<TRIPOS>ATOM
      1 C          65.6886   91.3847   13.5888 C.ar    1  UNL1        0.0002
      2 C          65.0346   91.7794   12.2980 C.ar    1  UNL1        0.0013
      3 C          63.6649   91.2673   11.9638 C.ar    1  UNL1        0.0159
      4 C          62.9493   90.3603   12.9205 C.ar    1  UNL1        0.0648
      5 C          63.6033   89.9655   14.2114 C.ar    1  UNL1        0.0159
      6 C          64.9730   90.4777   14.5456 C.ar    1  UNL1        0.0013
      7 C          68.8005   94.3126   16.5458 C.3     1  UNL1        0.0521
      8 C          68.6143   93.3608   15.4015 C.ar    1  UNL1        0.0594
      9 C          67.2446   92.8486   15.0673 C.ar    1  UNL1        0.0147
     10 C          67.0584   91.8969   13.9230 C.ar    1  UNL1        0.0027
     11 C          68.2417   91.4573   13.1129 C.ar    1  UNL1        0.0207
     12 C          69.6114   91.9695   13.4470 C.ar    1  UNL1        0.0984
     13 N          69.7976   92.9213   14.5913 N.ar    1  UNL1       -0.2481
     14 N          61.5796   89.8481   12.5864 N.pl3   1  UNL1       -0.2150
     15 H          60.8011   90.1468   13.1098 H       1  UNL1        0.1737
     16 S          61.3960   88.8809   11.4547 S.O2    1  UNL1        0.0736
     17 O          60.2909   89.7334   10.9053 O.2     1  UNL1       -0.1499
     18 O          62.5012   88.0284   12.0041 O.2     1  UNL1       -0.1499
     19 C          61.2125   87.9136   10.3230 C.ar    1  UNL1        0.1268
     20 C          62.3077   86.9496    9.9752 C.ar    1  UNL1        0.0316
     21 C          62.1241   85.9823    8.8435 C.ar    1  UNL1        0.0599
     22 CL         63.2195   85.0183    8.4957 Cl      1  UNL1       -0.0822
     23 C          60.8453   85.9791    8.0596 C.ar    1  UNL1        0.0229
     24 C          59.7501   86.9431    8.4074 C.ar    1  UNL1        0.0599
     25 CL         58.4711   86.9400    7.6235 Cl      1  UNL1       -0.0822
     26 C          59.9336   87.9104    9.5391 C.ar    1  UNL1        0.0316
@<TRIPOS>BOND
     1     7     8    1
     2     8     9   ar
     3     9    10   ar
     4    10     1    1
     5     1     2   ar
     6     2     3   ar
     7     3     4   ar
     8     4    14    1
     9    14    16    1
    10    16    17    2
    11    16    18    2
    12    16    19    1
    13    19    20   ar
    14    20    21   ar
    15    21    22    1
    16    21    23   ar
    17    23    24   ar
    18    24    25    1
    19    24    26   ar
    20     4     5   ar
    21     5     6   ar
    22    10    11   ar
    23    11    12   ar
    24    12    13   ar
    25    13     8   ar
    26     6     1   ar
    27    26    19   ar
    28    14    15    1
@<TRIPOS>MOLECULE
*****
 26 28 0 0 0
SMALL
GASTEIGER

@<TRIPOS>ATOM
      1 C          64.0302   90.9438   11.5464 C.ar    1  UNL1        0.0002
      2 C          63.2681   90.8026   10.2621 C.ar    1  UNL1        0.0013
      3 C          62.4475   89.5730   10.0082 C.ar    1  UNL1        0.0159
      4 C          62.3890   88.4843   11.0385 C.ar    1  UNL1        0.0648
      5 C          63.1512   88.6255   12.3228 C.ar    1  UNL1        0.0159
      6 C          63.9717   89.8552   12.5767 C.ar    1  UNL1        0.0013
      7 C          67.0378   93.7750   14.6989 C.3     1  UNL1        0.0521
      8 C          66.3545   93.5891   13.3765 C.ar    1  UNL1        0.0594
      9 C          65.5340   92.3594   13.1226 C.ar    1  UNL1        0.0147
     10 C          64.8508   92.1735   11.8002 C.ar    1  UNL1        0.0027
     11 C          64.9881   93.2173   10.7318 C.ar    1  UNL1        0.0207
     12 C          65.8086   94.4470   10.9857 C.ar    1  UNL1        0.0984
     13 N          66.4919   94.6329   12.3081 N.ar    1  UNL1       -0.2481
     14 N          61.5685   87.2546   10.7846 N.pl3   1  UNL1       -0.2150
     15 H          60.7087   87.3259   10.3104 H       1  UNL1        0.1737
     16 S          62.0580   85.9164   11.2532 S.O2    1  UNL1        0.0736
     17 O          61.4270   86.1547   12.5930 O.2     1  UNL1       -0.1499
     18 O          62.6890   85.6781    9.9134 O.2     1  UNL1       -0.1499
     19 C          62.5474   84.5782   11.7217 C.ar    1  UNL1        0.1268
     20 C          62.9243   84.3788   13.1598 C.ar    1  UNL1        0.0316
     21 C          63.4137   83.0406   13.6284 C.ar    1  UNL1        0.0599
     22 CL         63.7906   82.8413   15.0666 Cl      1  UNL1       -0.0822
     23 C          63.5264   81.9017   12.6588 C.ar    1  UNL1        0.0229
     24 C          63.1495   82.1010   11.2207 C.ar    1  UNL1        0.0599
     25 CL         63.2622   80.9620   10.2510 Cl      1  UNL1       -0.0822
     26 C          62.6601   83.4392   10.7522 C.ar    1  UNL1        0.0316
@<TRIPOS>BOND
     1     7     8    1
     2     8     9   ar
     3     9    10   ar
     4    10     1    1
     5     1     2   ar
     6     2     3   ar
     7     3     4   ar
     8     4    14    1
     9    14    16    1
    10    16    17    2
    11    16    18    2
    12    16    19    1
    13    19    20   ar
    14    20    21   ar
    15    21    22    1
    16    21    23   ar
    17    23    24   ar
    18    24    25    1
    19    24    26   ar
    20     4     5   ar
    21     5     6   ar
    22    10    11   ar
    23    11    12   ar
    24    12    13   ar
    25    13     8   ar
    26     6     1   ar
    27    26    19   ar
    28    14    15    1
