@<TRIPOS>MOLECULE
*****
 38 42 0 0 0
SMALL
GASTEIGER

@<TRIPOS>ATOM
      1 C          63.5791   88.1889   15.4911 C.3     1  UNL1        0.2246
      2 C          63.7041   86.7223   15.2020 C.2     1  UNL1        0.0436
      3 C          63.4408   85.7192   16.2858 C.2     1  UNL1        0.0288
      4 C          63.0525   86.1826   17.6585 C.2     1  UNL1        0.0896
      5 N          62.9275   87.6492   17.9476 N.am    1  UNL1       -0.1770
      6 C          63.1908   88.6523   16.8638 C.2     1  UNL1        0.2627
      7 O          63.0658   90.1188   17.1529 O.2     1  UNL1       -0.2719
      8 C          62.5014   90.2060   10.0272 C.3     1  UNL1        0.0312
      9 C          63.4884   90.9052   10.9142 C.2     1  UNL1        0.0136
     10 C          64.2100   92.1236   10.4192 C.2     1  UNL1        0.0107
     11 C          65.1970   92.8227   11.3062 C.2     1  UNL1        0.0509
     12 C          65.4626   92.3036   12.6883 C.2     1  UNL1        0.0613
     13 C          64.7410   91.0853   13.1833 C.2     1  UNL1        0.2246
     14 N          64.7957   90.3473   14.4880 N.2     1  UNL1       -0.0378
     15 C          63.8424   89.1920   14.4074 C.2     1  UNL1        0.3605
     16 N          63.1986   89.2160   13.0528 N.2     1  UNL1       -0.0547
     17 C          63.7540   90.3861   12.2962 C.3     1  UNL1        0.2976
     18 N          65.9186   94.0411   10.8112 N.pl3   1  UNL1       -0.3060
     19 C          66.0414   95.3485   11.5363 C.3     1  UNL1        0.0923
     20 C          66.8427   96.2813   10.6775 C.3     1  UNL1        0.0386
     21 C          67.2151   95.5506    9.4216 C.3     1  UNL1        0.0725
     22 N          68.0177   96.1067    8.2828 N.3     1  UNL1       -0.3208
     23 C          66.6439   94.1661    9.5042 C.3     1  UNL1        0.1062
     24 H          68.1208   95.3945    7.5599 H       1  UNL1        0.1189
     25 H          68.9393   96.3846    8.6202 H       1  UNL1        0.1189
     26 N          64.0924   86.2588   13.8293 N.pl3   1  UNL1       -0.3329
     27 H          64.3144   86.9173   13.1319 H       1  UNL1        0.1466
     28 C          64.1427   84.7921   13.5191 C.3     1  UNL1        0.1211
     29 C          63.0818   84.1705   12.6600 C.3     1  UNL1        0.1522
     30 O          62.3945   82.9147   13.1079 O.3     1  UNL1       -0.3783
     31 H          62.7513   82.6396   13.9670 H       1  UNL1        0.2109
     32 C          62.7082   84.8046   11.3530 C.ar    1  UNL1        0.0067
     33 C          63.4286   84.4140   10.0968 C.ar    1  UNL1       -0.0018
     34 C          63.0551   85.0481    8.7898 C.ar    1  UNL1        0.0006
     35 C          61.9610   86.0730    8.7390 C.ar    1  UNL1        0.0114
     36 C          61.2405   86.4637    9.9953 C.ar    1  UNL1        0.0574
     37 CL         60.1465   87.4886    9.9445 Cl      1  UNL1       -0.0823
     38 C          61.6141   85.8295   11.3023 C.ar    1  UNL1        0.0095
@<TRIPOS>BOND
     1     8     9    1
     2     9    10    2
     3    10    11    1
     4    11    18    1
     5    18    19    1
     6    19    20    1
     7    20    21    1
     8    21    22    1
     9    21    23    1
    10    11    12    2
    11    12    13    1
    12    13    14    2
    13    14    15    1
    14    15     1    1
    15     1     2    1
    16     2    26    1
    17    26    28    1
    18    28    29    1
    19    29    30    1
    20    29    32    1
    21    32    33   ar
    22    33    34   ar
    23    34    35   ar
    24    35    36   ar
    25    36    37    1
    26    36    38   ar
    27     2     3    2
    28     3     4    1
    29     4     5    2
    30     5     6    1
    31     6     7    2
    32    15    16    2
    33    16    17    1
    34    17     9    1
    35    23    18    1
    36    17    13    1
    37     6     1    1
    38    38    32   ar
    39    22    24    1
    40    22    25    1
    41    26    27    1
    42    30    31    1
@<TRIPOS>MOLECULE
*****
 38 42 0 0 0
SMALL
GASTEIGER

@<TRIPOS>ATOM
      1 C          61.2465   87.9029    9.6888 C.3     1  UNL1        0.2246
      2 C          61.5414   86.5303    9.1608 C.2     1  UNL1        0.0436
      3 C          60.6345   85.9085    8.1404 C.2     1  UNL1        0.0288
      4 C          59.4329   86.6593    7.6482 C.2     1  UNL1        0.0896
      5 N          59.1380   88.0319    8.1762 N.am    1  UNL1       -0.1770
      6 C          60.0449   88.6537    9.1966 C.2     1  UNL1        0.2627
      7 O          59.7501   90.0264    9.7246 O.2     1  UNL1       -0.2719
      8 C          64.0594   87.5838   14.8917 C.3     1  UNL1        0.0312
      9 C          64.1967   88.8020   14.0273 C.2     1  UNL1        0.0136
     10 C          65.0506   89.9496   14.4787 C.2     1  UNL1        0.0107
     11 C          65.1879   91.1677   13.6143 C.2     1  UNL1        0.0509
     12 C          64.4712   91.2383   12.2984 C.2     1  UNL1        0.0613
     13 C          63.6173   90.0907   11.8470 C.2     1  UNL1        0.2246
     14 N          62.7974   89.8758   10.6095 N.2     1  UNL1       -0.0378
     15 C          62.1533   88.5248   10.7091 C.2     1  UNL1        0.3605
     16 N          62.5752   87.9047   12.0082 N.2     1  UNL1       -0.0547
     17 C          63.4801   88.8725   12.7115 C.3     1  UNL1        0.2976
     18 N          66.0419   92.3154   14.0658 N.pl3   1  UNL1       -0.3060
     19 C          66.1346   93.6587   13.4049 C.3     1  UNL1        0.0923
     20 C          67.1030   94.4947   14.1880 C.3     1  UNL1        0.0386
     21 C          67.6089   93.6680   15.3328 C.3     1  UNL1        0.0725
     22 N          68.5970   94.1105   16.3710 N.3     1  UNL1       -0.3208
     23 C          66.9530   92.3211   15.2573 C.3     1  UNL1        0.1062
     24 H          68.7615   93.3495   17.0300 H       1  UNL1        0.1189
     25 H          68.2263   94.9187   16.8707 H       1  UNL1        0.1189
     26 N          62.7429   85.7794    9.6530 N.pl3   1  UNL1       -0.3329
     27 H          63.5039   86.2685   10.0414 H       1  UNL1        0.1466
     28 C          62.7851   84.2833    9.5534 C.3     1  UNL1        0.1211
     29 C          63.6399   83.4925   10.4989 C.3     1  UNL1        0.1522
     30 O          64.9273   82.8894   10.0205 O.3     1  UNL1       -0.3783
     31 H          65.0562   83.1038    9.0833 H       1  UNL1        0.2109
     32 C          63.2073   83.3049   11.9229 C.ar    1  UNL1        0.0067
     33 C          63.5777   84.3235   12.9597 C.ar    1  UNL1       -0.0018
     34 C          63.1450   84.1359   14.3837 C.ar    1  UNL1        0.0006
     35 C          62.3419   82.9296   14.7708 C.ar    1  UNL1        0.0114
     36 C          61.9715   81.9109   13.7339 C.ar    1  UNL1        0.0574
     37 CL         61.1684   80.7046   14.1210 Cl      1  UNL1       -0.0823
     38 C          62.4042   82.0986   12.3100 C.ar    1  UNL1        0.0095
@<TRIPOS>BOND
     1     8     9    1
     2     9    10    2
     3    10    11    1
     4    11    18    1
     5    18    19    1
     6    19    20    1
     7    20    21    1
     8    21    22    1
     9    21    23    1
    10    11    12    2
    11    12    13    1
    12    13    14    2
    13    14    15    1
    14    15     1    1
    15     1     2    1
    16     2    26    1
    17    26    28    1
    18    28    29    1
    19    29    30    1
    20    29    32    1
    21    32    33   ar
    22    33    34   ar
    23    34    35   ar
    24    35    36   ar
    25    36    37    1
    26    36    38   ar
    27     2     3    2
    28     3     4    1
    29     4     5    2
    30     5     6    1
    31     6     7    2
    32    15    16    2
    33    16    17    1
    34    17     9    1
    35    23    18    1
    36    17    13    1
    37     6     1    1
    38    38    32   ar
    39    22    24    1
    40    22    25    1
    41    26    27    1
    42    30    31    1
@<TRIPOS>MOLECULE
*****
 38 42 0 0 0
SMALL
GASTEIGER

@<TRIPOS>ATOM
      1 C          63.5510   88.3621   15.6186 C.3     1  UNL1        0.2246
      2 C          63.6397   86.8840   15.3790 C.2     1  UNL1        0.0436
      3 C          63.3588   85.9247   16.4975 C.2     1  UNL1        0.0288
      4 C          62.9892   86.4435   17.8555 C.2     1  UNL1        0.0896
      5 N          62.9005   87.9216   18.0951 N.am    1  UNL1       -0.1770
      6 C          63.1813   88.8808   16.9766 C.2     1  UNL1        0.2627
      7 O          63.0926   90.3589   17.2162 O.2     1  UNL1       -0.2719
      8 C          62.6295   90.1062   10.0335 C.3     1  UNL1        0.0312
      9 C          63.5683   90.8672   10.9220 C.2     1  UNL1        0.0136
     10 C          64.2810   92.0785   10.3977 C.2     1  UNL1        0.0107
     11 C          65.2197   92.8396   11.2861 C.2     1  UNL1        0.0509
     12 C          65.4459   92.3893   12.6990 C.2     1  UNL1        0.0613
     13 C          64.7333   91.1781   13.2233 C.2     1  UNL1        0.2246
     14 N          64.7564   90.5009   14.5616 N.2     1  UNL1       -0.0378
     15 C          63.8318   89.3214   14.5002 C.2     1  UNL1        0.3605
     16 N          63.2373   89.2695   13.1240 N.2     1  UNL1       -0.0547
     17 C          63.7945   90.4170   12.3348 C.3     1  UNL1        0.2976
     18 N          65.9324   94.0509   10.7618 N.pl3   1  UNL1       -0.3060
     19 C          66.0355   95.3798   11.4497 C.3     1  UNL1        0.0923
     20 C          66.8338   96.2962   10.5706 C.3     1  UNL1        0.0386
     21 C          67.2241   95.5337    9.3393 C.3     1  UNL1        0.0725
     22 N          68.0300   96.0653    8.1912 N.3     1  UNL1       -0.3208
     23 C          66.6669   94.1460    9.4574 C.3     1  UNL1        0.1062
     24 H          68.1465   95.3338    7.4900 H       1  UNL1        0.1189
     25 H          68.9458   96.3628    8.5277 H       1  UNL1        0.1189
     26 N          64.0093   86.3652   14.0210 N.pl3   1  UNL1       -0.3329
     27 H          63.5656   86.7248   13.2192 H       1  UNL1        0.1466
     28 C          65.0549   85.2983   13.8847 C.3     1  UNL1        0.1211
     29 C          64.7003   83.8636   14.1411 C.3     1  UNL1        0.1522
     30 O          64.8287   83.2947   15.5231 O.3     1  UNL1       -0.3783
     31 H          65.1512   83.9819   16.1270 H       1  UNL1        0.2109
     32 C          64.2174   82.9977   13.0155 C.ar    1  UNL1        0.0067
     33 C          64.4543   83.4141   11.5941 C.ar    1  UNL1       -0.0018
     34 C          63.9714   82.5482   10.4684 C.ar    1  UNL1        0.0006
     35 C          63.2515   81.2659   10.7642 C.ar    1  UNL1        0.0114
     36 C          63.0146   80.8495   12.1856 C.ar    1  UNL1        0.0574
     37 CL         62.2948   79.5672   12.4814 Cl      1  UNL1       -0.0823
     38 C          63.4976   81.7154   13.3113 C.ar    1  UNL1        0.0095
@<TRIPOS>BOND
     1     8     9    1
     2     9    10    2
     3    10    11    1
     4    11    18    1
     5    18    19    1
     6    19    20    1
     7    20    21    1
     8    21    22    1
     9    21    23    1
    10    11    12    2
    11    12    13    1
    12    13    14    2
    13    14    15    1
    14    15     1    1
    15     1     2    1
    16     2    26    1
    17    26    28    1
    18    28    29    1
    19    29    30    1
    20    29    32    1
    21    32    33   ar
    22    33    34   ar
    23    34    35   ar
    24    35    36   ar
    25    36    37    1
    26    36    38   ar
    27     2     3    2
    28     3     4    1
    29     4     5    2
    30     5     6    1
    31     6     7    2
    32    15    16    2
    33    16    17    1
    34    17     9    1
    35    23    18    1
    36    17    13    1
    37     6     1    1
    38    38    32   ar
    39    22    24    1
    40    22    25    1
    41    26    27    1
    42    30    31    1
@<TRIPOS>MOLECULE
*****
 38 42 0 0 0
SMALL
GASTEIGER

@<TRIPOS>ATOM
      1 C          64.8459   90.8947   15.1645 C.3     1  UNL1        0.2246
      2 C          66.1279   91.5877   14.8090 C.2     1  UNL1        0.0436
      3 C          66.6906   92.6376   15.7206 C.2     1  UNL1        0.0288
      4 C          65.9715   92.9946   16.9876 C.2     1  UNL1        0.0896
      5 N          64.6896   92.3016   17.3432 N.am    1  UNL1       -0.1770
      6 C          64.1268   91.2517   16.4316 C.2     1  UNL1        0.2627
      7 O          62.8449   90.5587   16.7871 O.2     1  UNL1       -0.2719
      8 C          63.9675   85.1780   13.8872 C.3     1  UNL1        0.0312
      9 C          63.4486   86.2489   12.9741 C.2     1  UNL1        0.0136
     10 C          62.7017   85.8751   11.7281 C.2     1  UNL1        0.0107
     11 C          62.1827   86.9460   10.8150 C.2     1  UNL1        0.0509
     12 C          62.4106   88.3908   11.1478 C.2     1  UNL1        0.0613
     13 C          63.1575   88.7646   12.3938 C.2     1  UNL1        0.2246
     14 N          63.5324   90.0941   12.9785 N.2     1  UNL1       -0.0378
     15 C          64.2831   89.8448   14.2530 C.2     1  UNL1        0.3605
     16 N          64.3721   88.3613   14.4560 N.2     1  UNL1       -0.0547
     17 C          63.6765   87.6936   13.3069 C.3     1  UNL1        0.2976
     18 N          61.4358   86.5721    9.5690 N.pl3   1  UNL1       -0.3060
     19 C          61.9581   85.7209    8.4499 C.3     1  UNL1        0.0923
     20 C          60.8806   85.6066    7.4127 C.3     1  UNL1        0.0386
     21 C          59.6923   86.3872    7.8907 C.3     1  UNL1        0.0725
     22 N          58.3896   86.5437    7.1638 N.3     1  UNL1       -0.3208
     23 C          60.0354   86.9839    9.2235 C.3     1  UNL1        0.1062
     24 H          57.7595   87.1249    7.7166 H       1  UNL1        0.1189
     25 H          57.9678   85.6261    7.0205 H       1  UNL1        0.1189
     26 N          66.8470   91.2308   13.5420 N.pl3   1  UNL1       -0.3329
     27 H          67.1391   90.3036   13.3862 H       1  UNL1        0.1466
     28 C          67.1213   92.2865   12.5123 C.3     1  UNL1        0.1211
     29 C          65.9891   93.0838   11.9357 C.3     1  UNL1        0.1522
     30 O          64.5709   92.6855   12.2185 O.3     1  UNL1       -0.3783
     31 H          64.5630   91.8981   12.7850 H       1  UNL1        0.2109
     32 C          66.2752   94.2794   11.0762 C.ar    1  UNL1        0.0067
     33 C          66.1879   95.6593   11.6577 C.ar    1  UNL1       -0.0018
     34 C          66.4739   96.8549   10.7983 C.ar    1  UNL1        0.0006
     35 C          66.8473   96.6706    9.3572 C.ar    1  UNL1        0.0114
     36 C          66.9346   95.2908    8.7757 C.ar    1  UNL1        0.0574
     37 CL         67.3080   95.1065    7.3347 Cl      1  UNL1       -0.0823
     38 C          66.6486   94.0951    9.6352 C.ar    1  UNL1        0.0095
@<TRIPOS>BOND
     1     8     9    1
     2     9    10    2
     3    10    11    1
     4    11    18    1
     5    18    19    1
     6    19    20    1
     7    20    21    1
     8    21    22    1
     9    21    23    1
    10    11    12    2
    11    12    13    1
    12    13    14    2
    13    14    15    1
    14    15     1    1
    15     1     2    1
    16     2    26    1
    17    26    28    1
    18    28    29    1
    19    29    30    1
    20    29    32    1
    21    32    33   ar
    22    33    34   ar
    23    34    35   ar
    24    35    36   ar
    25    36    37    1
    26    36    38   ar
    27     2     3    2
    28     3     4    1
    29     4     5    2
    30     5     6    1
    31     6     7    2
    32    15    16    2
    33    16    17    1
    34    17     9    1
    35    23    18    1
    36    17    13    1
    37     6     1    1
    38    38    32   ar
    39    22    24    1
    40    22    25    1
    41    26    27    1
    42    30    31    1
@<TRIPOS>MOLECULE
*****
 38 42 0 0 0
SMALL
GASTEIGER

@<TRIPOS>ATOM
      1 C          62.9455   86.4649   12.3707 C.3     1  UNL1        0.2246
      2 C          63.5707   87.5417   13.2070 C.2     1  UNL1        0.0436
      3 C          64.3124   87.1823   14.4604 C.2     1  UNL1        0.0288
      4 C          64.4289   85.7461   14.8773 C.2     1  UNL1        0.0896
      5 N          63.8037   84.6693   14.0409 N.am    1  UNL1       -0.1770
      6 C          63.0620   85.0287   12.7876 C.2     1  UNL1        0.2627
      7 O          62.4369   83.9519   11.9512 O.2     1  UNL1       -0.2719
      8 C          60.6897   84.8620    7.1336 C.3     1  UNL1        0.0312
      9 C          60.5550   86.2751    7.6185 C.2     1  UNL1        0.0136
     10 C          59.8453   87.2928    6.7755 C.2     1  UNL1        0.0107
     11 C          59.7106   88.7058    7.2602 C.2     1  UNL1        0.0509
     12 C          60.2856   89.1013    8.5881 C.2     1  UNL1        0.0613
     13 C          60.9952   88.0836    9.4311 C.2     1  UNL1        0.2246
     14 N          61.6590   88.1786   10.7729 N.2     1  UNL1       -0.0378
     15 C          62.2039   86.8242   11.1173 C.2     1  UNL1        0.3605
     16 N          61.8769   85.8921    9.9884 N.2     1  UNL1       -0.0547
     17 C          61.1299   86.6705    8.9463 C.3     1  UNL1        0.2976
     18 N          59.0009   89.7236    6.4172 N.pl3   1  UNL1       -0.3060
     19 C          59.6523   90.7901    5.5876 C.3     1  UNL1        0.0923
     20 C          58.5693   91.5791    4.9135 C.3     1  UNL1        0.0386
     21 C          57.2485   91.0003    5.3264 C.3     1  UNL1        0.0725
     22 N          55.8981   91.4833    4.8872 N.3     1  UNL1       -0.3208
     23 C          57.5153   89.8535    6.2557 C.3     1  UNL1        0.1062
     24 H          55.1744   90.9089    5.3195 H       1  UNL1        0.1189
     25 H          55.8258   91.4141    3.8721 H       1  UNL1        0.1189
     26 N          63.4543   88.9779   12.7902 N.pl3   1  UNL1       -0.3329
     27 H          63.7279   89.2514   11.8849 H       1  UNL1        0.1466
     28 C          62.9209   89.9973   13.7526 C.3     1  UNL1        0.1211
     29 C          63.8623   90.9298   14.4555 C.3     1  UNL1        0.1522
     30 O          63.5874   91.3479   15.8696 O.3     1  UNL1       -0.3783
     31 H          62.7686   90.9286   16.1773 H       1  UNL1        0.2109
     32 C          65.0786   91.4443   13.7443 C.ar    1  UNL1        0.0067
     33 C          66.4232   91.3650   14.4044 C.ar    1  UNL1       -0.0018
     34 C          67.6395   91.8795   13.6932 C.ar    1  UNL1        0.0006
     35 C          67.5113   92.4734   12.3218 C.ar    1  UNL1        0.0114
     36 C          66.1667   92.5528   11.6616 C.ar    1  UNL1        0.0574
     37 CL         66.0385   93.1467   10.2902 Cl      1  UNL1       -0.0823
     38 C          64.9504   92.0383   12.3728 C.ar    1  UNL1        0.0095
@<TRIPOS>BOND
     1     8     9    1
     2     9    10    2
     3    10    11    1
     4    11    18    1
     5    18    19    1
     6    19    20    1
     7    20    21    1
     8    21    22    1
     9    21    23    1
    10    11    12    2
    11    12    13    1
    12    13    14    2
    13    14    15    1
    14    15     1    1
    15     1     2    1
    16     2    26    1
    17    26    28    1
    18    28    29    1
    19    29    30    1
    20    29    32    1
    21    32    33   ar
    22    33    34   ar
    23    34    35   ar
    24    35    36   ar
    25    36    37    1
    26    36    38   ar
    27     2     3    2
    28     3     4    1
    29     4     5    2
    30     5     6    1
    31     6     7    2
    32    15    16    2
    33    16    17    1
    34    17     9    1
    35    23    18    1
    36    17    13    1
    37     6     1    1
    38    38    32   ar
    39    22    24    1
    40    22    25    1
    41    26    27    1
    42    30    31    1
@<TRIPOS>MOLECULE
*****
 38 42 0 0 0
SMALL
GASTEIGER

@<TRIPOS>ATOM
      1 C          62.9277   84.0009   13.3566 C.3     1  UNL1        0.2246
      2 C          63.1363   83.2476   12.0763 C.2     1  UNL1        0.0436
      3 C          62.7822   81.7921   11.9964 C.2     1  UNL1        0.0288
      4 C          62.2196   81.0900   13.1966 C.2     1  UNL1        0.0896
      5 N          62.0111   81.8433   14.4768 N.am    1  UNL1       -0.1770
      6 C          62.3652   83.2988   14.5568 C.2     1  UNL1        0.2627
      7 O          62.1566   84.0521   15.8370 O.2     1  UNL1       -0.2719
      8 C          62.6375   89.4604   11.0776 C.3     1  UNL1        0.0312
      9 C          63.3853   89.2084   12.3533 C.2     1  UNL1        0.0136
     10 C          64.0658   90.3428   13.0604 C.2     1  UNL1        0.0107
     11 C          64.8135   90.0908   14.3360 C.2     1  UNL1        0.0509
     12 C          64.8808   88.7044   14.9046 C.2     1  UNL1        0.0613
     13 C          64.2004   87.5699   14.1975 C.2     1  UNL1        0.2246
     14 N          64.0948   86.1079   14.5157 N.2     1  UNL1       -0.0378
     15 C          63.2818   85.4563   13.4366 C.2     1  UNL1        0.3605
     16 N          62.8849   86.5156   12.4515 N.2     1  UNL1       -0.0547
     17 C          63.4526   87.8220   12.9218 C.3     1  UNL1        0.2976
     18 N          65.4940   91.2253   15.0432 N.pl3   1  UNL1       -0.3060
     19 C          64.9030   92.0631   16.1381 C.3     1  UNL1        0.0923
     20 C          65.9287   93.0766   16.5512 C.3     1  UNL1        0.0386
     21 C          67.1535   92.8654   15.7115 C.3     1  UNL1        0.0725
     22 N          68.4240   93.6589   15.7900 N.3     1  UNL1       -0.3208
     23 C          66.8849   91.7212   14.7795 C.3     1  UNL1        0.1062
     24 H          69.0908   93.3017   15.1057 H       1  UNL1        0.1189
     25 H          68.8199   93.5753   16.7263 H       1  UNL1        0.1189
     26 N          63.6988   83.9496   10.8761 N.pl3   1  UNL1       -0.3329
     27 H          64.5318   84.4684   10.9548 H       1  UNL1        0.1466
     28 C          62.9923   83.8612    9.5559 C.3     1  UNL1        0.1211
     29 C          62.8468   85.0842    8.6997 C.3     1  UNL1        0.1522
     30 O          63.9898   85.5392    7.8415 O.3     1  UNL1       -0.3783
     31 H          64.7410   84.9365    7.9572 H       1  UNL1        0.2109
     32 C          61.5583   85.8521    8.7017 C.ar    1  UNL1        0.0067
     33 C          60.6439   85.7861    7.5145 C.ar    1  UNL1       -0.0018
     34 C          59.3555   86.5541    7.5166 C.ar    1  UNL1        0.0006
     35 C          58.9813   87.3881    8.7058 C.ar    1  UNL1        0.0114
     36 C          59.8957   87.4542    9.8930 C.ar    1  UNL1        0.0574
     37 CL         59.5216   88.2882   11.0823 Cl      1  UNL1       -0.0823
     38 C          61.1842   86.6862    9.8910 C.ar    1  UNL1        0.0095
@<TRIPOS>BOND
     1     8     9    1
     2     9    10    2
     3    10    11    1
     4    11    18    1
     5    18    19    1
     6    19    20    1
     7    20    21    1
     8    21    22    1
     9    21    23    1
    10    11    12    2
    11    12    13    1
    12    13    14    2
    13    14    15    1
    14    15     1    1
    15     1     2    1
    16     2    26    1
    17    26    28    1
    18    28    29    1
    19    29    30    1
    20    29    32    1
    21    32    33   ar
    22    33    34   ar
    23    34    35   ar
    24    35    36   ar
    25    36    37    1
    26    36    38   ar
    27     2     3    2
    28     3     4    1
    29     4     5    2
    30     5     6    1
    31     6     7    2
    32    15    16    2
    33    16    17    1
    34    17     9    1
    35    23    18    1
    36    17    13    1
    37     6     1    1
    38    38    32   ar
    39    22    24    1
    40    22    25    1
    41    26    27    1
    42    30    31    1
@<TRIPOS>MOLECULE
*****
 38 42 0 0 0
SMALL
GASTEIGER

@<TRIPOS>ATOM
      1 C          63.0424   84.1626   11.5237 C.3     1  UNL1        0.2246
      2 C          62.9203   83.9057   12.9965 C.2     1  UNL1        0.0436
      3 C          63.5534   82.6873   13.6003 C.2     1  UNL1        0.0288
      4 C          64.3087   81.7257   12.7314 C.2     1  UNL1        0.0896
      5 N          64.4308   81.9826   11.2587 N.am    1  UNL1       -0.1770
      6 C          63.7976   83.2010   10.6548 C.2     1  UNL1        0.2627
      7 O          63.9197   83.4579    9.1821 O.2     1  UNL1       -0.2719
      8 C          61.4628   89.8534   11.9755 C.3     1  UNL1        0.0312
      9 C          61.1747   89.0822   10.7216 C.2     1  UNL1        0.0136
     10 C          60.4824   89.7517    9.5716 C.2     1  UNL1        0.0107
     11 C          60.1943   88.9806    8.3178 C.2     1  UNL1        0.0509
     12 C          60.5986   87.5398    8.2138 C.2     1  UNL1        0.0613
     13 C          61.2909   86.8703    9.3637 C.2     1  UNL1        0.2246
     14 N          61.8040   85.4732    9.5505 N.2     1  UNL1       -0.0378
     15 C          62.4092   85.3810   10.9198 C.2     1  UNL1        0.3605
     16 N          62.2702   86.7210   11.5794 N.2     1  UNL1       -0.0547
     17 C          61.5790   87.6415   10.6176 C.3     1  UNL1        0.2976
     18 N          59.5019   89.6502    7.1678 N.pl3   1  UNL1       -0.3060
     19 C          60.1694   90.3914    6.0474 C.3     1  UNL1        0.0923
     20 C          59.1005   90.8954    5.1236 C.3     1  UNL1        0.0386
     21 C          57.7725   90.4658    5.6729 C.3     1  UNL1        0.0725
     22 N          56.4318   90.7549    5.0656 N.3     1  UNL1       -0.3208
     23 C          58.0206   89.6962    6.9364 C.3     1  UNL1        0.1062
     24 H          55.7001   90.3453    5.6463 H       1  UNL1        0.1189
     25 H          56.3885   90.3520    4.1296 H       1  UNL1        0.1189
     26 N          62.1650   84.8672   13.8655 N.pl3   1  UNL1       -0.3329
     27 H          61.3261   85.2683   13.5422 H       1  UNL1        0.1466
     28 C          62.6880   85.2176   15.2270 C.3     1  UNL1        0.1211
     29 C          63.9404   86.0319   15.3626 C.3     1  UNL1        0.1522
     30 O          65.2791   85.3552   15.3586 O.3     1  UNL1       -0.3783
     31 H          65.1572   84.3979   15.2608 H       1  UNL1        0.2109
     32 C          63.8541   87.5229   15.5023 C.ar    1  UNL1        0.0067
     33 C          63.2267   88.1268   16.7236 C.ar    1  UNL1       -0.0018
     34 C          63.1403   89.6178   16.8632 C.ar    1  UNL1        0.0006
     35 C          63.6815   90.5049   15.7815 C.ar    1  UNL1        0.0114
     36 C          64.3089   89.9011   14.5602 C.ar    1  UNL1        0.0574
     37 CL         64.8500   90.7883   13.4785 Cl      1  UNL1       -0.0823
     38 C          64.3952   88.4101   14.4206 C.ar    1  UNL1        0.0095
@<TRIPOS>BOND
     1     8     9    1
     2     9    10    2
     3    10    11    1
     4    11    18    1
     5    18    19    1
     6    19    20    1
     7    20    21    1
     8    21    22    1
     9    21    23    1
    10    11    12    2
    11    12    13    1
    12    13    14    2
    13    14    15    1
    14    15     1    1
    15     1     2    1
    16     2    26    1
    17    26    28    1
    18    28    29    1
    19    29    30    1
    20    29    32    1
    21    32    33   ar
    22    33    34   ar
    23    34    35   ar
    24    35    36   ar
    25    36    37    1
    26    36    38   ar
    27     2     3    2
    28     3     4    1
    29     4     5    2
    30     5     6    1
    31     6     7    2
    32    15    16    2
    33    16    17    1
    34    17     9    1
    35    23    18    1
    36    17    13    1
    37     6     1    1
    38    38    32   ar
    39    22    24    1
    40    22    25    1
    41    26    27    1
    42    30    31    1
@<TRIPOS>MOLECULE
*****
 38 42 0 0 0
SMALL
GASTEIGER

@<TRIPOS>ATOM
      1 C          63.1851   83.5715   13.5950 C.3     1  UNL1        0.2246
      2 C          62.6348   83.2697   12.2326 C.2     1  UNL1        0.0436
      3 C          62.3846   81.8486   11.8228 C.2     1  UNL1        0.0288
      4 C          62.6845   80.7294   12.7752 C.2     1  UNL1        0.0896
      5 N          63.2348   81.0311   14.1377 N.am    1  UNL1       -0.1770
      6 C          63.4850   82.4522   14.5475 C.2     1  UNL1        0.2627
      7 O          64.0353   82.7540   15.9099 O.2     1  UNL1       -0.2719
      8 C          62.7652   87.8660   17.6528 C.3     1  UNL1        0.0312
      9 C          63.4012   88.1379   16.3218 C.2     1  UNL1        0.0136
     10 C          63.9359   89.5045   16.0113 C.2     1  UNL1        0.0107
     11 C          64.5719   89.7765   14.6804 C.2     1  UNL1        0.0509
     12 C          64.6732   88.6818   13.6598 C.2     1  UNL1        0.0613
     13 C          64.1385   87.3152   13.9703 C.2     1  UNL1        0.2246
     14 N          64.0970   86.0478   13.1691 N.2     1  UNL1       -0.0378
     15 C          63.4353   84.9925   14.0050 C.2     1  UNL1        0.3605
     16 N          63.0679   85.6077   15.3227 N.2     1  UNL1       -0.0547
     17 C          63.5024   87.0433   15.3013 C.3     1  UNL1        0.2976
     18 N          65.1067   91.1432   14.3699 N.pl3   1  UNL1       -0.3060
     19 C          65.7551   92.0790   15.3465 C.3     1  UNL1        0.0923
     20 C          66.1361   93.3281   14.6085 C.3     1  UNL1        0.0386
     21 C          65.7232   93.1642   13.1759 C.3     1  UNL1        0.0725
     22 N          65.9130   94.1734   12.0825 N.3     1  UNL1       -0.3208
     23 C          65.0870   91.8138   13.0284 C.3     1  UNL1        0.1062
     24 H          65.5403   93.8021   11.2086 H       1  UNL1        0.1189
     25 H          66.9075   94.3712   11.9712 H       1  UNL1        0.1189
     26 N          62.3348   84.3889   11.2801 N.pl3   1  UNL1       -0.3329
     27 H          61.5657   84.9814   11.4433 H       1  UNL1        0.1466
     28 C          63.2067   84.6055   10.0789 C.3     1  UNL1        0.1211
     29 C          62.6647   85.3232    8.8784 C.3     1  UNL1        0.1522
     30 O          62.9253   84.7858    7.5024 O.3     1  UNL1       -0.3783
     31 H          63.4549   83.9757    7.5666 H       1  UNL1        0.2109
     32 C          61.8620   86.5781    9.0539 C.ar    1  UNL1        0.0067
     33 C          60.4795   86.6707    8.4794 C.ar    1  UNL1       -0.0018
     34 C          59.6768   87.9256    8.6549 C.ar    1  UNL1        0.0006
     35 C          60.2566   89.0881    9.4049 C.ar    1  UNL1        0.0114
     36 C          61.6392   88.9955    9.9794 C.ar    1  UNL1        0.0574
     37 CL         62.2190   90.1580   10.7293 Cl      1  UNL1       -0.0823
     38 C          62.4418   87.7406    9.8039 C.ar    1  UNL1        0.0095
@<TRIPOS>BOND
     1     8     9    1
     2     9    10    2
     3    10    11    1
     4    11    18    1
     5    18    19    1
     6    19    20    1
     7    20    21    1
     8    21    22    1
     9    21    23    1
    10    11    12    2
    11    12    13    1
    12    13    14    2
    13    14    15    1
    14    15     1    1
    15     1     2    1
    16     2    26    1
    17    26    28    1
    18    28    29    1
    19    29    30    1
    20    29    32    1
    21    32    33   ar
    22    33    34   ar
    23    34    35   ar
    24    35    36   ar
    25    36    37    1
    26    36    38   ar
    27     2     3    2
    28     3     4    1
    29     4     5    2
    30     5     6    1
    31     6     7    2
    32    15    16    2
    33    16    17    1
    34    17     9    1
    35    23    18    1
    36    17    13    1
    37     6     1    1
    38    38    32   ar
    39    22    24    1
    40    22    25    1
    41    26    27    1
    42    30    31    1
