@<TRIPOS>MOLECULE
*****
 34 37 0 0 0
SMALL
GASTEIGER

@<TRIPOS>ATOM
      1 C          60.7531   89.8297    9.9044 C.3     1  UNL1        0.0308
      2 C          60.8116   88.4288    9.3716 C.ar    1  UNL1       -0.0242
      3 C          61.6330   87.3914   10.0780 C.ar    1  UNL1       -0.0030
      4 C          61.6915   85.9904    9.5452 C.ar    1  UNL1        0.0175
      5 C          60.9285   85.6268    8.3060 C.ar    1  UNL1        0.0012
      6 C          60.1071   86.6642    7.5996 C.ar    1  UNL1       -0.0029
      7 C          60.0486   88.0652    8.1324 C.ar    1  UNL1       -0.0065
      8 C          62.5130   84.9530   10.2517 C.ar    1  UNL1        0.0857
      9 C          63.4985   84.1247    9.4818 C.ar    1  UNL1        0.0399
     10 C          64.3200   83.0874   10.1882 C.ar    1  UNL1        0.1034
     11 N          64.1559   82.8783   11.6646 N.ar    1  UNL1       -0.2120
     12 C          63.1704   83.7066   12.4344 C.ar    1  UNL1        0.2207
     13 N          62.3489   84.7440   11.7279 N.ar    1  UNL1       -0.2135
     14 N          63.0064   83.4976   13.9106 N.pl3   1  UNL1       -0.2801
     15 H          62.7726   82.6068   14.2587 H       1  UNL1        0.1552
     16 C          63.1985   84.6457   14.8566 C.ar    1  UNL1        0.0906
     17 C          64.0700   85.8440   14.6231 C.ar    1  UNL1        0.1363
     18 N          63.9629   86.7361   15.8243 N.ar    1  UNL1       -0.1662
     19 N          63.0253   86.0890   16.8002 N.ar    1  UNL1       -0.2460
     20 C          62.6296   86.6376   18.1390 C.3     1  UNL1        0.1538
     21 C          62.5528   84.7971   16.2020 C.ar    1  UNL1        0.1114
     22 C          59.2271   89.1026    7.4259 C.3     1  UNL1        0.1174
     23 N          59.8535   89.9635    6.3693 N.am    1  UNL1       -0.2847
     24 C          58.9917   90.8315    5.5009 C.2     1  UNL1        0.3044
     25 O          57.5036   90.8383    5.6890 O.2     1  UNL1       -0.2526
     26 N          59.6181   91.6924    4.4443 N.am    1  UNL1       -0.2591
     27 C          59.1017   92.6584    3.4195 C.3     1  UNL1        0.1262
     28 C          60.5040   92.9100    2.9501 C.3     1  UNL1        0.1546
     29 C          61.0204   91.9441    3.9749 C.3     1  UNL1        0.1262
     30 H          60.8302   89.9590    6.2459 H       1  UNL1        0.1513
     31 O          61.1304   93.7710    1.8936 O.3     1  UNL1       -0.3552
     32 C          61.7275   93.1416    0.6698 C.3     1  UNL1        0.1154
     33 C          60.9668   92.0874   -0.0785 C.3     1  UNL1        0.0320
     34 C          63.0853   93.5664    0.1945 C.3     1  UNL1        0.0320
@<TRIPOS>BOND
     1     1     2    1
     2     2     3   ar
     3     3     4   ar
     4     4     8    1
     5     8     9   ar
     6     9    10   ar
     7    10    11   ar
     8    11    12   ar
     9    12    14    1
    10    14    16    1
    11    16    17   ar
    12    17    18   ar
    13    18    19   ar
    14    19    20    1
    15    19    21   ar
    16    12    13   ar
    17     4     5   ar
    18     5     6   ar
    19     6     7   ar
    20     7    22    1
    21    22    23    1
    22    23    24   am
    23    24    25    2
    24    24    26   am
    25    26    27    1
    26    27    28    1
    27    28    31    1
    28    31    32    1
    29    32    33    1
    30    32    34    1
    31    28    29    1
    32     7     2   ar
    33    29    26    1
    34    13     8   ar
    35    21    16   ar
    36    14    15    1
    37    23    30    1
@<TRIPOS>MOLECULE
*****
 34 37 0 0 0
SMALL
GASTEIGER

@<TRIPOS>ATOM
      1 C          60.5383   86.1765    7.9674 C.3     1  UNL1        0.0308
      2 C          60.8708   87.2652    8.9442 C.ar    1  UNL1       -0.0242
      3 C          61.7210   86.9638   10.1426 C.ar    1  UNL1       -0.0030
      4 C          62.0535   88.0525   11.1193 C.ar    1  UNL1        0.0175
      5 C          61.5357   89.4427   10.8977 C.ar    1  UNL1        0.0012
      6 C          60.6855   89.7442    9.6993 C.ar    1  UNL1       -0.0029
      7 C          60.3530   88.6554    8.7225 C.ar    1  UNL1       -0.0065
      8 C          62.9037   87.7510   12.3178 C.ar    1  UNL1        0.0857
      9 C          63.4614   88.8726   13.1430 C.ar    1  UNL1        0.0399
     10 C          64.3117   88.5711   14.3414 C.ar    1  UNL1        0.1034
     11 N          64.6042   87.1480   14.7146 N.ar    1  UNL1       -0.2120
     12 C          64.0465   86.0264   13.8894 C.ar    1  UNL1        0.2207
     13 N          63.1962   86.3279   12.6910 N.ar    1  UNL1       -0.2135
     14 N          64.3390   84.6034   14.2626 N.pl3   1  UNL1       -0.2801
     15 H          65.1150   84.3930   14.8307 H       1  UNL1        0.1552
     16 C          63.4491   83.5008   13.7702 C.ar    1  UNL1        0.0906
     17 C          63.4236   82.9439   12.3777 C.ar    1  UNL1        0.1363
     18 N          62.3872   81.8605   12.3306 N.ar    1  UNL1       -0.1662
     19 N          61.7722   81.7478   13.6942 N.ar    1  UNL1       -0.2460
     20 C          60.6909   80.7896   14.0972 C.3     1  UNL1        0.1538
     21 C          62.4285   82.7616   14.5838 C.ar    1  UNL1        0.1114
     22 C          59.5028   88.9570    7.5241 C.3     1  UNL1        0.1174
     23 N          60.0279   89.8467    6.4367 N.am    1  UNL1       -0.2847
     24 C          59.0806   90.6859    5.6313 C.2     1  UNL1        0.3044
     25 O          57.6083   90.6353    5.9134 O.2     1  UNL1       -0.2526
     26 N          59.6057   91.5756    4.5438 N.am    1  UNL1       -0.2591
     27 C          58.9893   92.5267    3.5613 C.3     1  UNL1        0.1262
     28 C          60.3484   92.8339    3.0059 C.3     1  UNL1        0.1546
     29 C          60.9649   91.8829    3.9885 C.3     1  UNL1        0.1262
     30 H          60.9942   89.8799    6.2515 H       1  UNL1        0.1513
     31 O          60.8735   93.7237    1.9185 O.3     1  UNL1       -0.3552
     32 C          61.4783   93.1227    0.6843 C.3     1  UNL1        0.1154
     33 C          62.8114   93.6030    0.1922 C.3     1  UNL1        0.0320
     34 C          60.7499   92.0416   -0.0577 C.3     1  UNL1        0.0320
@<TRIPOS>BOND
     1     1     2    1
     2     2     3   ar
     3     3     4   ar
     4     4     8    1
     5     8     9   ar
     6     9    10   ar
     7    10    11   ar
     8    11    12   ar
     9    12    14    1
    10    14    16    1
    11    16    17   ar
    12    17    18   ar
    13    18    19   ar
    14    19    20    1
    15    19    21   ar
    16    12    13   ar
    17     4     5   ar
    18     5     6   ar
    19     6     7   ar
    20     7    22    1
    21    22    23    1
    22    23    24   am
    23    24    25    2
    24    24    26   am
    25    26    27    1
    26    27    28    1
    27    28    31    1
    28    31    32    1
    29    32    33    1
    30    32    34    1
    31    28    29    1
    32     7     2   ar
    33    29    26    1
    34    13     8   ar
    35    21    16   ar
    36    14    15    1
    37    23    30    1
@<TRIPOS>MOLECULE
*****
 34 37 0 0 0
SMALL
GASTEIGER

@<TRIPOS>ATOM
      1 C          62.0201   90.4913    9.4984 C.3     1  UNL1        0.0308
      2 C          62.7583   90.3046   10.7908 C.ar    1  UNL1       -0.0242
      3 C          63.6811   91.3770   11.2891 C.ar    1  UNL1       -0.0030
      4 C          64.4193   91.1904   12.5815 C.ar    1  UNL1        0.0175
      5 C          64.2347   89.9313   13.3756 C.ar    1  UNL1        0.0012
      6 C          63.3119   88.8589   12.8773 C.ar    1  UNL1       -0.0029
      7 C          62.5737   89.0456   11.5849 C.ar    1  UNL1       -0.0065
      8 C          65.3422   92.2629   13.0797 C.ar    1  UNL1        0.0857
      9 C          66.0683   92.0829   14.3799 C.ar    1  UNL1        0.0399
     10 C          66.9911   93.1553   14.8782 C.ar    1  UNL1        0.1034
     11 N          67.1878   94.4077   14.0763 N.ar    1  UNL1       -0.2120
     12 C          66.4617   94.5876   12.7762 C.ar    1  UNL1        0.2207
     13 N          65.5388   93.5152   12.2779 N.ar    1  UNL1       -0.2135
     14 N          66.6583   95.8400   11.9743 N.pl3   1  UNL1       -0.2801
     15 H          66.7784   96.7035   12.4316 H       1  UNL1        0.1552
     16 C          66.6721   95.7765   10.4758 C.ar    1  UNL1        0.0906
     17 C          67.4852   94.8324    9.6407 C.ar    1  UNL1        0.1363
     18 N          67.1908   95.1184    8.1980 N.ar    1  UNL1       -0.1662
     19 N          66.1957   96.2395    8.1414 N.ar    1  UNL1       -0.2460
     20 C          65.6219   96.8471    6.8957 C.3     1  UNL1        0.1538
     21 C          65.8751   96.6462    9.5491 C.ar    1  UNL1        0.1114
     22 C          61.6508   87.9731   11.0866 C.3     1  UNL1        0.1174
     23 N          61.8747   86.5452   11.4876 N.am    1  UNL1       -0.2847
     24 C          62.4610   85.5737   10.5065 C.2     1  UNL1        0.3044
     25 O          62.8234   86.0302    9.1244 O.2     1  UNL1       -0.2526
     26 N          62.6848   84.1457   10.9076 N.am    1  UNL1       -0.2591
     27 C          63.2304   82.9258   10.2264 C.3     1  UNL1        0.1262
     28 C          63.0014   82.1263   11.4747 C.3     1  UNL1        0.1546
     29 C          62.4558   83.3463   12.1559 C.3     1  UNL1        0.1262
     30 H          61.6368   86.2456   12.3948 H       1  UNL1        0.1513
     31 O          63.2252   80.6984   11.8758 O.3     1  UNL1       -0.3552
     32 C          63.0136   80.2773   13.2999 C.3     1  UNL1        0.1154
     33 C          63.9890   80.6975   14.3591 C.3     1  UNL1        0.0320
     34 C          61.8265   79.4360   13.6646 C.3     1  UNL1        0.0320
@<TRIPOS>BOND
     1     1     2    1
     2     2     3   ar
     3     3     4   ar
     4     4     8    1
     5     8     9   ar
     6     9    10   ar
     7    10    11   ar
     8    11    12   ar
     9    12    14    1
    10    14    16    1
    11    16    17   ar
    12    17    18   ar
    13    18    19   ar
    14    19    20    1
    15    19    21   ar
    16    12    13   ar
    17     4     5   ar
    18     5     6   ar
    19     6     7   ar
    20     7    22    1
    21    22    23    1
    22    23    24   am
    23    24    25    2
    24    24    26   am
    25    26    27    1
    26    27    28    1
    27    28    31    1
    28    31    32    1
    29    32    33    1
    30    32    34    1
    31    28    29    1
    32     7     2   ar
    33    29    26    1
    34    13     8   ar
    35    21    16   ar
    36    14    15    1
    37    23    30    1
