@<TRIPOS>MOLECULE
*****
 30 32 0 0 0
SMALL
GASTEIGER

@<TRIPOS>ATOM
      1 N          63.2543   89.8917   12.2738 N.pl3   1  UNL1       -0.2872
      2 N          65.7631   93.4394   11.1038 N.3     1  UNL1       -0.2717
      3 C          64.8228   92.8252   10.1096 C.3     1  UNL1        0.0738
      4 C          63.9865   91.6427   10.4996 C.3     1  UNL1        0.0374
      5 C          64.0906   91.0743   11.8838 C.3     1  UNL1        0.0800
      6 C          65.0309   91.6885   12.8780 C.3     1  UNL1        0.0374
      7 C          65.8672   92.8711   12.4880 C.3     1  UNL1        0.0738
      8 C          66.5994   94.6220   10.7138 C.3     1  UNL1        0.0845
      9 C          67.5623   94.5148    9.5686 C.3     1  UNL1        0.1251
     10 C          67.2335   95.1503    8.2503 C.3     1  UNL1        0.0332
     11 O          68.8539   93.7720    9.7417 O.3     1  UNL1       -0.3831
     12 H          69.3555   93.7978    8.9119 H       1  UNL1        0.2104
     13 C          65.3480   96.8547   11.1598 C.3     1  UNL1        0.0015
     14 C          66.4729   95.9118   11.4689 C.3     1  UNL1        0.0184
     15 C          62.3249   89.2682   11.2750 C.ar    1  UNL1        0.0515
     16 C          62.5902   87.8818   10.7673 C.ar    1  UNL1        0.0148
     17 C          61.6608   87.2583    9.7685 C.ar    1  UNL1        0.0051
     18 C          60.4663   88.0211    9.2774 C.ar    1  UNL1        0.0715
     19 C          60.2010   89.4074    9.7851 C.ar    1  UNL1        0.0051
     20 C          61.1304   90.0310   10.7839 C.ar    1  UNL1        0.0148
     21 C          59.5369   87.3975    8.2786 C.3     1  UNL1        0.4186
     22 F          58.6076   86.7741    7.2798 F       1  UNL1       -0.1659
     23 F          59.9698   86.0333    8.7275 F       1  UNL1       -0.1659
     24 F          59.1041   88.7617    7.8297 F       1  UNL1       -0.1659
     25 C          63.3473   89.3326   13.6625 C.ar    1  UNL1        0.0710
     26 C          64.0425   88.0247   13.8995 C.ar    1  UNL1        0.0180
     27 C          64.1355   87.4656   15.2884 C.ar    1  UNL1        0.0220
     28 C          63.5333   88.2144   16.4402 C.ar    1  UNL1        0.0990
     29 N          62.8381   89.5223   16.2032 N.ar    1  UNL1       -0.2410
     30 C          62.7451   90.0814   14.8144 C.ar    1  UNL1        0.1136
@<TRIPOS>BOND
     1    13    14    1
     2    14     8    1
     3     8     9    1
     4     9    10    1
     5     9    11    1
     6     8     2    1
     7     2     3    1
     8     3     4    1
     9     4     5    1
    10     5     1    1
    11     1    15    1
    12    15    16   ar
    13    16    17   ar
    14    17    18   ar
    15    18    21    1
    16    21    22    1
    17    21    23    1
    18    21    24    1
    19    18    19   ar
    20    19    20   ar
    21     1    25    1
    22    25    26   ar
    23    26    27   ar
    24    27    28   ar
    25    28    29   ar
    26    29    30   ar
    27     5     6    1
    28     6     7    1
    29     7     2    1
    30    20    15   ar
    31    30    25   ar
    32    11    12    1
@<TRIPOS>MOLECULE
*****
 30 32 0 0 0
SMALL
GASTEIGER

@<TRIPOS>ATOM
      1 N          65.7094   92.3435   12.5852 N.pl3   1  UNL1       -0.2872
      2 N          62.1198   89.7121   11.9216 N.3     1  UNL1       -0.2717
      3 C          62.8362   89.6851   13.2392 C.3     1  UNL1        0.0738
      4 C          64.0327   90.5622   13.4603 C.3     1  UNL1        0.0374
      5 C          64.5128   91.4663   12.3640 C.3     1  UNL1        0.0800
      6 C          63.7964   91.4933   11.0465 C.3     1  UNL1        0.0374
      7 C          62.5999   90.6162   10.8253 C.3     1  UNL1        0.0738
      8 C          60.9232   88.8349   11.7004 C.3     1  UNL1        0.0845
      9 C          59.5497   89.3451   12.0214 C.3     1  UNL1        0.1251
     10 C          59.0957   90.6684   11.4803 C.3     1  UNL1        0.0332
     11 O          58.6300   88.5320   12.8835 O.3     1  UNL1       -0.3831
     12 H          57.7885   89.0021   12.9918 H       1  UNL1        0.2104
     13 C          60.5086   87.0804    9.8297 C.3     1  UNL1        0.0015
     14 C          61.1002   87.4476   11.1583 C.3     1  UNL1        0.0184
     15 C          66.1910   93.2457   11.4880 C.ar    1  UNL1        0.0515
     16 C          65.8262   94.7007   11.4989 C.ar    1  UNL1        0.0148
     17 C          66.3079   95.6029   10.4017 C.ar    1  UNL1        0.0051
     18 C          67.1543   95.0503    9.2935 C.ar    1  UNL1        0.0715
     19 C          67.5192   93.5954    9.2825 C.ar    1  UNL1        0.0051
     20 C          67.0375   92.6931   10.3798 C.ar    1  UNL1        0.0148
     21 C          67.6360   95.9526    8.1962 C.3     1  UNL1        0.4186
     22 F          68.1177   96.8549    7.0991 F       1  UNL1       -0.1659
     23 F          67.0059   95.0500    7.1773 F       1  UNL1       -0.1659
     24 F          68.2661   96.8552    9.2152 F       1  UNL1       -0.1659
     25 C          66.4243   92.3184   13.9036 C.ar    1  UNL1        0.0710
     26 C          67.8966   92.0357   13.9532 C.ar    1  UNL1        0.0180
     27 C          68.6114   92.0106   15.2717 C.ar    1  UNL1        0.0220
     28 C          67.8540   92.2682   16.5405 C.ar    1  UNL1        0.0990
     29 N          66.3817   92.5509   16.4909 N.ar    1  UNL1       -0.2410
     30 C          65.6669   92.5760   15.1725 C.ar    1  UNL1        0.1136
@<TRIPOS>BOND
     1    13    14    1
     2    14     8    1
     3     8     9    1
     4     9    10    1
     5     9    11    1
     6     8     2    1
     7     2     3    1
     8     3     4    1
     9     4     5    1
    10     5     1    1
    11     1    15    1
    12    15    16   ar
    13    16    17   ar
    14    17    18   ar
    15    18    21    1
    16    21    22    1
    17    21    23    1
    18    21    24    1
    19    18    19   ar
    20    19    20   ar
    21     1    25    1
    22    25    26   ar
    23    26    27   ar
    24    27    28   ar
    25    28    29   ar
    26    29    30   ar
    27     5     6    1
    28     6     7    1
    29     7     2    1
    30    20    15   ar
    31    30    25   ar
    32    11    12    1
@<TRIPOS>MOLECULE
*****
 30 32 0 0 0
SMALL
GASTEIGER

@<TRIPOS>ATOM
      1 N          65.6469   92.1906   12.4800 N.pl3   1  UNL1       -0.2872
      2 N          62.3487   89.2421   11.6564 N.3     1  UNL1       -0.2717
      3 C          62.7015   90.2786   10.6311 C.3     1  UNL1        0.0738
      4 C          63.8009   91.2614   10.9057 C.3     1  UNL1        0.0374
      5 C          64.5475   91.2078   12.2055 C.3     1  UNL1        0.0800
      6 C          64.1947   90.1714   13.2308 C.3     1  UNL1        0.0374
      7 C          63.0953   89.1885   12.9563 C.3     1  UNL1        0.0738
      8 C          61.2493   88.2593   11.3819 C.3     1  UNL1        0.0845
      9 C          61.5787   86.8200   11.1177 C.3     1  UNL1        0.1251
     10 C          61.4285   86.2578    9.7352 C.3     1  UNL1        0.0332
     11 O          62.0583   85.9428   12.2361 O.3     1  UNL1       -0.3831
     12 H          62.2247   85.0492   11.8975 H       1  UNL1        0.2104
     13 C          59.4634   90.0743   11.8977 C.3     1  UNL1        0.0015
     14 C          59.8205   88.7158   11.3716 C.3     1  UNL1        0.0184
     15 C          66.1064   93.1233   11.3989 C.ar    1  UNL1        0.0515
     16 C          67.1589   92.6824   10.4252 C.ar    1  UNL1        0.0148
     17 C          67.6184   93.6151    9.3441 C.ar    1  UNL1        0.0051
     18 C          67.0254   94.9887    9.2365 C.ar    1  UNL1        0.0715
     19 C          65.9729   95.4296   10.2100 C.ar    1  UNL1        0.0051
     20 C          65.5134   94.4969   11.2912 C.ar    1  UNL1        0.0148
     21 C          67.4849   95.9213    8.1552 C.3     1  UNL1        0.4186
     22 F          67.9444   96.8539    7.0740 F       1  UNL1       -0.1659
     23 F          68.0451   96.8484    9.1929 F       1  UNL1       -0.1659
     24 F          66.9248   94.9943    7.1176 F       1  UNL1       -0.1659
     25 C          66.2868   92.2408   13.8357 C.ar    1  UNL1        0.0710
     26 C          67.7379   91.8948   13.9934 C.ar    1  UNL1        0.0180
     27 C          68.3778   91.9450   15.3492 C.ar    1  UNL1        0.0220
     28 C          67.5667   92.3411   16.5472 C.ar    1  UNL1        0.0990
     29 N          66.1157   92.6870   16.3895 N.ar    1  UNL1       -0.2410
     30 C          65.4757   92.6369   15.0338 C.ar    1  UNL1        0.1136
@<TRIPOS>BOND
     1    13    14    1
     2    14     8    1
     3     8     9    1
     4     9    10    1
     5     9    11    1
     6     8     2    1
     7     2     3    1
     8     3     4    1
     9     4     5    1
    10     5     1    1
    11     1    15    1
    12    15    16   ar
    13    16    17   ar
    14    17    18   ar
    15    18    21    1
    16    21    22    1
    17    21    23    1
    18    21    24    1
    19    18    19   ar
    20    19    20   ar
    21     1    25    1
    22    25    26   ar
    23    26    27   ar
    24    27    28   ar
    25    28    29   ar
    26    29    30   ar
    27     5     6    1
    28     6     7    1
    29     7     2    1
    30    20    15   ar
    31    30    25   ar
    32    11    12    1
@<TRIPOS>MOLECULE
*****
 30 32 0 0 0
SMALL
GASTEIGER

@<TRIPOS>ATOM
      1 N          62.3432   86.3519   11.6513 N.pl3   1  UNL1       -0.2872
      2 N          64.2977   89.7624   13.8419 N.3     1  UNL1       -0.2717
      3 C          63.4957   90.0285   12.6026 C.3     1  UNL1        0.0738
      4 C          62.8442   88.8916   11.8724 C.3     1  UNL1        0.0374
      5 C          62.9947   87.4888   12.3815 C.3     1  UNL1        0.0800
      6 C          63.7967   87.2227   13.6208 C.3     1  UNL1        0.0374
      7 C          64.4482   88.3595   14.3510 C.3     1  UNL1        0.0738
      8 C          64.9491   90.8992   14.5721 C.3     1  UNL1        0.0845
      9 C          64.3720   91.3874   15.8677 C.3     1  UNL1        0.1251
     10 C          63.4276   90.5175   16.6431 C.3     1  UNL1        0.0332
     11 O          64.7392   92.7456   16.3878 O.3     1  UNL1       -0.3831
     12 H          64.2828   92.9040   17.2290 H       1  UNL1        0.2104
     13 C          67.4638   91.5187   14.7782 C.3     1  UNL1        0.0015
     14 C          66.1778   91.5479   14.0067 C.3     1  UNL1        0.0184
     15 C          62.4825   84.9507   12.1679 C.ar    1  UNL1        0.0515
     16 C          62.2796   84.6654   13.6265 C.ar    1  UNL1        0.0148
     17 C          62.4189   83.2641   14.1432 C.ar    1  UNL1        0.0051
     18 C          62.7612   82.1480   13.2012 C.ar    1  UNL1        0.0715
     19 C          62.9640   82.4332   11.7427 C.ar    1  UNL1        0.0051
     20 C          62.8247   83.8346   11.2260 C.ar    1  UNL1        0.0148
     21 C          62.9005   80.7467   13.7179 C.3     1  UNL1        0.4186
     22 F          63.0397   79.3454   14.2346 F       1  UNL1       -0.1659
     23 F          64.3885   80.8325   13.5495 F       1  UNL1       -0.1659
     24 F          61.4125   80.6609   13.8864 F       1  UNL1       -0.1659
     25 C          61.5524   86.6164   10.4045 C.ar    1  UNL1        0.0710
     26 C          61.9866   86.0173    9.0997 C.ar    1  UNL1        0.0180
     27 C          61.1958   86.2818    7.8528 C.ar    1  UNL1        0.0220
     28 C          59.9707   87.1454    7.9108 C.ar    1  UNL1        0.0990
     29 N          59.5364   87.7444    9.2156 N.ar    1  UNL1       -0.2410
     30 C          60.3272   87.4800   10.4624 C.ar    1  UNL1        0.1136
@<TRIPOS>BOND
     1    13    14    1
     2    14     8    1
     3     8     9    1
     4     9    10    1
     5     9    11    1
     6     8     2    1
     7     2     3    1
     8     3     4    1
     9     4     5    1
    10     5     1    1
    11     1    15    1
    12    15    16   ar
    13    16    17   ar
    14    17    18   ar
    15    18    21    1
    16    21    22    1
    17    21    23    1
    18    21    24    1
    19    18    19   ar
    20    19    20   ar
    21     1    25    1
    22    25    26   ar
    23    26    27   ar
    24    27    28   ar
    25    28    29   ar
    26    29    30   ar
    27     5     6    1
    28     6     7    1
    29     7     2    1
    30    20    15   ar
    31    30    25   ar
    32    11    12    1
@<TRIPOS>MOLECULE
*****
 30 32 0 0 0
SMALL
GASTEIGER

@<TRIPOS>ATOM
      1 N          62.1233   87.2576   10.7849 N.pl3   1  UNL1       -0.2872
      2 N          64.2348   90.7220   12.7316 N.3     1  UNL1       -0.2717
      3 C          63.6211   90.8854   11.3728 C.3     1  UNL1        0.0738
      4 C          62.9173   89.7307   10.7239 C.3     1  UNL1        0.0374
      5 C          62.8272   88.4124   11.4338 C.3     1  UNL1        0.0800
      6 C          63.4409   88.2490   12.7927 C.3     1  UNL1        0.0374
      7 C          64.1448   89.4037   13.4416 C.3     1  UNL1        0.0738
      8 C          64.9387   91.8768   13.3806 C.3     1  UNL1        0.0845
      9 C          65.0317   91.9542   14.8756 C.3     1  UNL1        0.1251
     10 C          66.3580   92.1962   15.5331 C.3     1  UNL1        0.0332
     11 O          63.7982   91.7896   15.7133 O.3     1  UNL1       -0.3831
     12 H          64.0320   91.8666   16.6516 H       1  UNL1        0.2104
     13 C          66.8105   92.6821   11.7689 C.3     1  UNL1        0.0015
     14 C          65.5496   92.9541   12.5344 C.3     1  UNL1        0.0184
     15 C          62.4196   85.8550   11.2261 C.ar    1  UNL1        0.0515
     16 C          63.0297   84.8792   10.2639 C.ar    1  UNL1        0.0148
     17 C          63.3259   83.4765   10.7051 C.ar    1  UNL1        0.0051
     18 C          63.0121   83.0495   12.1084 C.ar    1  UNL1        0.0715
     19 C          62.4021   84.0252   13.0705 C.ar    1  UNL1        0.0051
     20 C          62.1058   85.4280   12.6294 C.ar    1  UNL1        0.0148
     21 C          63.3084   81.6467   12.5495 C.3     1  UNL1        0.4186
     22 F          63.6047   80.2440   12.9906 F       1  UNL1       -0.1659
     23 F          64.7770   81.9065   12.3892 F       1  UNL1       -0.1659
     24 F          61.8398   81.3870   12.7098 F       1  UNL1       -0.1659
     25 C          61.1232   87.5055    9.6949 C.ar    1  UNL1        0.0710
     26 C          60.5090   86.3490    8.9633 C.ar    1  UNL1        0.0180
     27 C          59.5088   86.5970    7.8732 C.ar    1  UNL1        0.0220
     28 C          59.1229   88.0014    7.5147 C.ar    1  UNL1        0.0990
     29 N          59.7371   89.1579    8.2462 N.ar    1  UNL1       -0.2410
     30 C          60.7372   88.9100    9.3363 C.ar    1  UNL1        0.1136
@<TRIPOS>BOND
     1    13    14    1
     2    14     8    1
     3     8     9    1
     4     9    10    1
     5     9    11    1
     6     8     2    1
     7     2     3    1
     8     3     4    1
     9     4     5    1
    10     5     1    1
    11     1    15    1
    12    15    16   ar
    13    16    17   ar
    14    17    18   ar
    15    18    21    1
    16    21    22    1
    17    21    23    1
    18    21    24    1
    19    18    19   ar
    20    19    20   ar
    21     1    25    1
    22    25    26   ar
    23    26    27   ar
    24    27    28   ar
    25    28    29   ar
    26    29    30   ar
    27     5     6    1
    28     6     7    1
    29     7     2    1
    30    20    15   ar
    31    30    25   ar
    32    11    12    1
@<TRIPOS>MOLECULE
*****
 30 32 0 0 0
SMALL
GASTEIGER

@<TRIPOS>ATOM
      1 N          62.9307   88.8966   12.3305 N.pl3   1  UNL1       -0.2872
      2 N          63.3649   84.4724   13.0290 N.3     1  UNL1       -0.2717
      3 C          64.0339   85.4467   13.9526 C.3     1  UNL1        0.0738
      4 C          63.8892   86.9214   13.7198 C.3     1  UNL1        0.0374
      5 C          63.0755   87.4218   12.5633 C.3     1  UNL1        0.0800
      6 C          62.4065   86.4475   11.6397 C.3     1  UNL1        0.0374
      7 C          62.5512   84.9728   11.8725 C.3     1  UNL1        0.0738
      8 C          63.5096   82.9976   13.2618 C.3     1  UNL1        0.0845
      9 C          62.7151   82.3276   14.3433 C.3     1  UNL1        0.1251
     10 C          61.8431   81.1521   14.0146 C.3     1  UNL1        0.0332
     11 O          62.7925   82.8329   15.7535 O.3     1  UNL1       -0.3831
     12 H          62.2225   82.2922   16.3225 H       1  UNL1        0.2104
     13 C          64.3094   82.2071   10.9197 C.3     1  UNL1        0.0015
     14 C          64.4489   82.1930   12.4132 C.3     1  UNL1        0.0184
     15 C          63.9032   89.8533   12.9541 C.ar    1  UNL1        0.0515
     16 C          64.2971   91.1039   12.2253 C.ar    1  UNL1        0.0148
     17 C          65.2696   92.0606   12.8488 C.ar    1  UNL1        0.0051
     18 C          65.8483   91.7668   14.2012 C.ar    1  UNL1        0.0715
     19 C          65.4545   90.5164   14.9299 C.ar    1  UNL1        0.0051
     20 C          64.4819   89.5596   14.3064 C.ar    1  UNL1        0.0148
     21 C          66.8209   92.7237   14.8247 C.3     1  UNL1        0.4186
     22 F          67.7934   93.6804   15.4482 F       1  UNL1       -0.1659
     23 F          66.1194   93.8704   14.1592 F       1  UNL1       -0.1659
     24 F          67.5223   91.5769   15.4902 F       1  UNL1       -0.1659
     25 C          61.8135   89.4146   11.4741 C.ar    1  UNL1        0.0710
     26 C          61.9051   89.3142    9.9803 C.ar    1  UNL1        0.0180
     27 C          60.7877   89.8322    9.1239 C.ar    1  UNL1        0.0220
     28 C          59.5790   90.4506    9.7614 C.ar    1  UNL1        0.0990
     29 N          59.4874   90.5511   11.2552 N.ar    1  UNL1       -0.2410
     30 C          60.6047   90.0330   12.1116 C.ar    1  UNL1        0.1136
@<TRIPOS>BOND
     1    13    14    1
     2    14     8    1
     3     8     9    1
     4     9    10    1
     5     9    11    1
     6     8     2    1
     7     2     3    1
     8     3     4    1
     9     4     5    1
    10     5     1    1
    11     1    15    1
    12    15    16   ar
    13    16    17   ar
    14    17    18   ar
    15    18    21    1
    16    21    22    1
    17    21    23    1
    18    21    24    1
    19    18    19   ar
    20    19    20   ar
    21     1    25    1
    22    25    26   ar
    23    26    27   ar
    24    27    28   ar
    25    28    29   ar
    26    29    30   ar
    27     5     6    1
    28     6     7    1
    29     7     2    1
    30    20    15   ar
    31    30    25   ar
    32    11    12    1
@<TRIPOS>MOLECULE
*****
 30 32 0 0 0
SMALL
GASTEIGER

@<TRIPOS>ATOM
      1 N          63.4595   89.7710   12.5514 N.pl3   1  UNL1       -0.2872
      2 N          61.2803   87.5024    9.3336 N.3     1  UNL1       -0.2717
      3 C          61.3038   89.0020    9.3093 C.3     1  UNL1        0.0738
      4 C          62.0302   89.7582   10.3819 C.3     1  UNL1        0.0374
      5 C          62.7331   89.0148   11.4788 C.3     1  UNL1        0.0800
      6 C          62.7097   87.5152   11.5031 C.3     1  UNL1        0.0374
      7 C          61.9833   86.7590   10.4305 C.3     1  UNL1        0.0738
      8 C          60.5540   86.7462    8.2609 C.3     1  UNL1        0.0845
      9 C          59.2606   87.2749    7.7153 C.3     1  UNL1        0.1251
     10 C          59.2062   88.6473    7.1124 C.3     1  UNL1        0.0332
     11 O          58.0217   86.4311    7.7725 O.3     1  UNL1       -0.3831
     12 H          57.2803   86.9184    7.3805 H       1  UNL1        0.2104
     13 C          62.6070   85.2771    7.6473 C.3     1  UNL1        0.0015
     14 C          61.1209   85.4614    7.7340 C.3     1  UNL1        0.0184
     15 C          64.2220   91.0158   12.2064 C.ar    1  UNL1        0.0515
     16 C          65.0988   91.6675   13.2343 C.ar    1  UNL1        0.0148
     17 C          65.8613   92.9123   12.8892 C.ar    1  UNL1        0.0051
     18 C          65.7469   93.5054   11.5162 C.ar    1  UNL1        0.0715
     19 C          64.8702   92.8538   10.4883 C.ar    1  UNL1        0.0051
     20 C          64.1077   91.6090   10.8334 C.ar    1  UNL1        0.0148
     21 C          66.5094   94.7503   11.1712 C.3     1  UNL1        0.4186
     22 F          67.2719   95.9951   10.8262 F       1  UNL1       -0.1659
     23 F          66.8223   94.1837    9.8180 F       1  UNL1       -0.1659
     24 F          66.1966   95.3169   12.5243 F       1  UNL1       -0.1659
     25 C          63.4235   89.2824   13.9691 C.ar    1  UNL1        0.0710
     26 C          64.0977   87.9935   14.3356 C.ar    1  UNL1        0.0180
     27 C          64.0616   87.5049   15.7534 C.ar    1  UNL1        0.0220
     28 C          63.3514   88.3052   16.8046 C.ar    1  UNL1        0.0990
     29 N          62.6772   89.5941   16.4382 N.ar    1  UNL1       -0.2410
     30 C          62.7133   90.0827   15.0205 C.ar    1  UNL1        0.1136
@<TRIPOS>BOND
     1    13    14    1
     2    14     8    1
     3     8     9    1
     4     9    10    1
     5     9    11    1
     6     8     2    1
     7     2     3    1
     8     3     4    1
     9     4     5    1
    10     5     1    1
    11     1    15    1
    12    15    16   ar
    13    16    17   ar
    14    17    18   ar
    15    18    21    1
    16    21    22    1
    17    21    23    1
    18    21    24    1
    19    18    19   ar
    20    19    20   ar
    21     1    25    1
    22    25    26   ar
    23    26    27   ar
    24    27    28   ar
    25    28    29   ar
    26    29    30   ar
    27     5     6    1
    28     6     7    1
    29     7     2    1
    30    20    15   ar
    31    30    25   ar
    32    11    12    1
@<TRIPOS>MOLECULE
*****
 30 32 0 0 0
SMALL
GASTEIGER

@<TRIPOS>ATOM
      1 N          62.8639   85.0968   12.0523 N.pl3   1  UNL1       -0.2872
      2 N          64.0089   89.0049   13.9671 N.3     1  UNL1       -0.2717
      3 C          63.2407   88.9975   12.6788 C.3     1  UNL1        0.0738
      4 C          62.8591   87.6949   12.0405 C.3     1  UNL1        0.0374
      5 C          63.2455   86.3995   12.6906 C.3     1  UNL1        0.0800
      6 C          64.0137   86.4068   13.9789 C.3     1  UNL1        0.0374
      7 C          64.3954   87.7095   14.6172 C.3     1  UNL1        0.0738
      8 C          64.3906   90.3075   14.6054 C.3     1  UNL1        0.0845
      9 C          63.7810   90.7075   15.9162 C.3     1  UNL1        0.1251
     10 C          63.1224   89.6755   16.7830 C.3     1  UNL1        0.0332
     11 O          63.8300   92.1394   16.3604 O.3     1  UNL1       -0.3831
     12 H          63.3942   92.2256   17.2227 H       1  UNL1        0.2104
     13 C          66.7299   91.4365   14.5504 C.3     1  UNL1        0.0015
     14 C          65.3818   91.2103   13.9327 C.3     1  UNL1        0.0184
     15 C          62.6502   85.0223   10.5695 C.ar    1  UNL1        0.0515
     16 C          63.6312   84.2856    9.7064 C.ar    1  UNL1        0.0148
     17 C          63.4174   84.2111    8.2236 C.ar    1  UNL1        0.0051
     18 C          62.2228   84.8733    7.6039 C.ar    1  UNL1        0.0715
     19 C          61.2418   85.6101    8.4669 C.ar    1  UNL1        0.0051
     20 C          61.4555   85.6846    9.9498 C.ar    1  UNL1        0.0148
     21 C          62.0091   84.7988    6.1210 C.3     1  UNL1        0.4186
     22 F          61.7953   84.7243    4.6382 F       1  UNL1       -0.1659
     23 F          63.4754   84.5536    5.9220 F       1  UNL1       -0.1659
     24 F          60.5427   85.0440    6.3200 F       1  UNL1       -0.1659
     25 C          62.6959   83.8686   12.8969 C.ar    1  UNL1        0.0710
     26 C          62.6104   82.5186   12.2487 C.ar    1  UNL1        0.0180
     27 C          62.4424   81.2904   13.0933 C.ar    1  UNL1        0.0220
     28 C          62.3600   81.4122   14.5861 C.ar    1  UNL1        0.0990
     29 N          62.4455   82.7622   15.2342 N.ar    1  UNL1       -0.2410
     30 C          62.6135   83.9904   14.3897 C.ar    1  UNL1        0.1136
@<TRIPOS>BOND
     1    13    14    1
     2    14     8    1
     3     8     9    1
     4     9    10    1
     5     9    11    1
     6     8     2    1
     7     2     3    1
     8     3     4    1
     9     4     5    1
    10     5     1    1
    11     1    15    1
    12    15    16   ar
    13    16    17   ar
    14    17    18   ar
    15    18    21    1
    16    21    22    1
    17    21    23    1
    18    21    24    1
    19    18    19   ar
    20    19    20   ar
    21     1    25    1
    22    25    26   ar
    23    26    27   ar
    24    27    28   ar
    25    28    29   ar
    26    29    30   ar
    27     5     6    1
    28     6     7    1
    29     7     2    1
    30    20    15   ar
    31    30    25   ar
    32    11    12    1
@<TRIPOS>MOLECULE
*****
 30 32 0 0 0
SMALL
GASTEIGER

@<TRIPOS>ATOM
      1 N          62.8870   86.2550   12.3792 N.pl3   1  UNL1       -0.2872
      2 N          64.7706   89.8354   14.3496 N.3     1  UNL1       -0.2717
      3 C          64.0128   89.9982   13.0654 C.3     1  UNL1        0.0738
      4 C          63.3850   88.8047   12.4086 C.3     1  UNL1        0.0374
      5 C          63.5149   87.4485   13.0360 C.3     1  UNL1        0.0800
      6 C          64.2726   87.2857   14.3202 C.3     1  UNL1        0.0374
      7 C          64.9005   88.4792   14.9770 C.3     1  UNL1        0.0738
      8 C          65.3985   91.0289   15.0064 C.3     1  UNL1        0.0845
      9 C          64.6873   91.7296   16.1259 C.3     1  UNL1        0.1251
     10 C          63.3947   91.1809   16.6531 C.3     1  UNL1        0.0332
     11 O          65.2689   92.9790   16.7183 O.3     1  UNL1       -0.3831
     12 H          64.6889   93.3018   17.4256 H       1  UNL1        0.2104
     13 C          66.8308   92.4420   13.3628 C.3     1  UNL1        0.0015
     14 C          66.7375   91.5218   14.5436 C.3     1  UNL1        0.0184
     15 C          62.0253   86.4341   11.1646 C.ar    1  UNL1        0.0515
     16 C          62.3921   85.7556    9.8780 C.ar    1  UNL1        0.0148
     17 C          61.5304   85.9348    8.6634 C.ar    1  UNL1        0.0051
     18 C          60.3018   86.7923    8.7353 C.ar    1  UNL1        0.0715
     19 C          59.9350   87.4708   10.0218 C.ar    1  UNL1        0.0051
     20 C          60.7967   87.2917   11.2365 C.ar    1  UNL1        0.0148
     21 C          59.4401   86.9714    7.5206 C.3     1  UNL1        0.4186
     22 F          58.5785   87.1505    6.3059 F       1  UNL1       -0.1659
     23 F          59.1612   88.3880    7.9272 F       1  UNL1       -0.1659
     24 F          59.7190   85.5548    7.1139 F       1  UNL1       -0.1659
     25 C          63.1208   84.8824   12.9370 C.ar    1  UNL1        0.0710
     26 C          64.1077   83.9637   12.2797 C.ar    1  UNL1        0.0180
     27 C          64.3416   82.5911   12.8376 C.ar    1  UNL1        0.0220
     28 C          63.5885   82.1371   14.0528 C.ar    1  UNL1        0.0990
     29 N          62.6016   83.0557   14.7101 N.ar    1  UNL1       -0.2410
     30 C          62.3677   84.4283   14.1523 C.ar    1  UNL1        0.1136
@<TRIPOS>BOND
     1    13    14    1
     2    14     8    1
     3     8     9    1
     4     9    10    1
     5     9    11    1
     6     8     2    1
     7     2     3    1
     8     3     4    1
     9     4     5    1
    10     5     1    1
    11     1    15    1
    12    15    16   ar
    13    16    17   ar
    14    17    18   ar
    15    18    21    1
    16    21    22    1
    17    21    23    1
    18    21    24    1
    19    18    19   ar
    20    19    20   ar
    21     1    25    1
    22    25    26   ar
    23    26    27   ar
    24    27    28   ar
    25    28    29   ar
    26    29    30   ar
    27     5     6    1
    28     6     7    1
    29     7     2    1
    30    20    15   ar
    31    30    25   ar
    32    11    12    1
