@<TRIPOS>MOLECULE
*****
 26 28 0 0 0
SMALL
GASTEIGER

@<TRIPOS>ATOM
      1 C          64.3991   91.2451   12.3182 C.ar    1  UNL1        0.0274
      2 C          63.5849   91.1935   11.0595 C.ar    1  UNL1        0.0013
      3 C          62.7032   90.0116   10.7845 C.ar    1  UNL1        0.0145
      4 C          62.6356   88.8813   11.7682 C.ar    1  UNL1        0.0513
      5 C          63.4498   88.9328   13.0270 C.ar    1  UNL1        0.0509
      6 C          64.3315   90.1147   13.3020 C.ar    1  UNL1        0.1322
      7 O          65.1456   90.1663   14.5608 O.3     1  UNL1       -0.5057
      8 H          65.1034   89.4602   15.1753 H       1  UNL1        0.2922
      9 N          61.7539   87.6994   11.4932 N.pl3   1  UNL1       -0.3124
     10 H          60.8397   87.6719   11.8575 H       1  UNL1        0.1522
     11 C          62.2650   86.5594   10.6630 C.ar    1  UNL1        0.0513
     12 C          62.3507   86.6969    9.1718 C.ar    1  UNL1        0.0353
     13 C          62.8619   85.5569    8.3417 C.ar    1  UNL1        0.1001
     14 N          63.2874   84.2794    9.0028 N.ar    1  UNL1       -0.2437
     15 C          63.2017   84.1419   10.4940 C.ar    1  UNL1        0.0833
     16 C          63.6271   82.8644   11.1551 C.ar    1  UNL1        0.0305
     17 C          63.5414   82.7270   12.6462 C.ar    1  UNL1        0.0592
     18 CL         63.9669   81.4495   13.3073 Cl      1  UNL1       -0.0822
     19 C          63.0303   83.8670   13.4764 C.ar    1  UNL1        0.0115
     20 C          62.6048   85.1444   12.8153 C.ar    1  UNL1        0.0036
     21 C          62.6905   85.2819   11.3241 C.ar    1  UNL1        0.0312
     22 C          65.2808   92.4270   12.5933 C.3     1  UNL1        0.0987
     23 N          65.5046   92.8835   14.0045 N.3     1  UNL1       -0.2937
     24 H          64.8228   93.6197   14.1874 H       1  UNL1        0.1236
     25 C          67.4105   93.0737   15.7599 C.3     1  UNL1        0.0185
     26 C          66.8433   93.4212   14.4154 C.3     1  UNL1        0.0689
@<TRIPOS>BOND
     1    25    26    1
     2    26    23    1
     3    23    22    1
     4    22     1    1
     5     1     2   ar
     6     2     3   ar
     7     3     4   ar
     8     4     9    1
     9     9    11    1
    10    11    12   ar
    11    12    13   ar
    12    13    14   ar
    13    14    15   ar
    14    15    16   ar
    15    16    17   ar
    16    17    18    1
    17    17    19   ar
    18    19    20   ar
    19    20    21   ar
    20     4     5   ar
    21     5     6   ar
    22     6     7    1
    23     6     1   ar
    24    21    11   ar
    25    21    15   ar
    26    23    24    1
    27     9    10    1
    28     7     8    1
@<TRIPOS>MOLECULE
*****
 26 28 0 0 0
SMALL
GASTEIGER

@<TRIPOS>ATOM
      1 C          64.1199   91.1826   11.9587 C.ar    1  UNL1        0.0274
      2 C          64.1341   90.1114   13.0085 C.ar    1  UNL1        0.0013
      3 C          63.3309   88.8596   12.8137 C.ar    1  UNL1        0.0145
      4 C          62.5135   88.6791   11.5691 C.ar    1  UNL1        0.0513
      5 C          62.4992   89.7504   10.5192 C.ar    1  UNL1        0.0509
      6 C          63.3024   91.0021   10.7140 C.ar    1  UNL1        0.1322
      7 O          63.2882   92.0734    9.6642 O.3     1  UNL1       -0.5057
      8 H          62.7775   91.9606    8.8867 H       1  UNL1        0.2922
      9 N          61.7103   87.4273   11.3743 N.pl3   1  UNL1       -0.3124
     10 H          60.8037   87.3603   11.7524 H       1  UNL1        0.1522
     11 C          62.2883   86.2777   10.6033 C.ar    1  UNL1        0.0513
     12 C          62.4417   86.3747    9.1144 C.ar    1  UNL1        0.0353
     13 C          63.0197   85.2251    8.3435 C.ar    1  UNL1        0.1001
     14 N          63.4443   83.9785    9.0616 N.ar    1  UNL1       -0.2437
     15 C          63.2909   83.8815   10.5506 C.ar    1  UNL1        0.0833
     16 C          63.7155   82.6349   11.2687 C.ar    1  UNL1        0.0305
     17 C          63.5622   82.5378   12.7576 C.ar    1  UNL1        0.0592
     18 CL         63.9868   81.2912   13.4757 Cl      1  UNL1       -0.0822
     19 C          62.9841   83.6875   13.5286 C.ar    1  UNL1        0.0115
     20 C          62.5595   84.9341   12.8105 C.ar    1  UNL1        0.0036
     21 C          62.7129   85.0311   11.3214 C.ar    1  UNL1        0.0312
     22 C          64.9231   92.4344   12.1535 C.3     1  UNL1        0.0987
     23 N          65.5901   93.0878   10.9796 N.3     1  UNL1       -0.2937
     24 H          64.9313   93.0399   10.2024 H       1  UNL1        0.1236
     25 C          67.6851   93.3472    9.4651 C.3     1  UNL1        0.0185
     26 C          66.8988   92.5599   10.4711 C.3     1  UNL1        0.0689
@<TRIPOS>BOND
     1    25    26    1
     2    26    23    1
     3    23    22    1
     4    22     1    1
     5     1     2   ar
     6     2     3   ar
     7     3     4   ar
     8     4     9    1
     9     9    11    1
    10    11    12   ar
    11    12    13   ar
    12    13    14   ar
    13    14    15   ar
    14    15    16   ar
    15    16    17   ar
    16    17    18    1
    17    17    19   ar
    18    19    20   ar
    19    20    21   ar
    20     4     5   ar
    21     5     6   ar
    22     6     7    1
    23     6     1   ar
    24    21    11   ar
    25    21    15   ar
    26    23    24    1
    27     9    10    1
    28     7     8    1
@<TRIPOS>MOLECULE
*****
 26 28 0 0 0
SMALL
GASTEIGER

@<TRIPOS>ATOM
      1 C          61.9145   87.4327   10.3671 C.ar    1  UNL1        0.0274
      2 C          61.6318   88.7298    9.6689 C.ar    1  UNL1        0.0013
      3 C          62.0567   90.0258   10.2933 C.ar    1  UNL1        0.0145
      4 C          62.7644   90.0246   11.6159 C.ar    1  UNL1        0.0513
      5 C          63.0471   88.7274   12.3141 C.ar    1  UNL1        0.0509
      6 C          62.6222   87.4315   11.6897 C.ar    1  UNL1        0.1322
      7 O          62.9049   86.1343   12.3878 O.3     1  UNL1       -0.5057
      8 H          63.3470   86.1336   13.2140 H       1  UNL1        0.2922
      9 N          63.1893   91.3206   12.2403 N.pl3   1  UNL1       -0.3124
     10 H          62.5673   91.8136   12.8229 H       1  UNL1        0.1522
     11 C          64.5618   91.8655   11.9770 C.ar    1  UNL1        0.0513
     12 C          64.9364   92.3202   10.5976 C.ar    1  UNL1        0.0353
     13 C          66.3089   92.8650   10.3344 C.ar    1  UNL1        0.1001
     14 N          67.3068   92.9552   11.4506 N.ar    1  UNL1       -0.2437
     15 C          66.9323   92.5005   12.8300 C.ar    1  UNL1        0.0833
     16 C          67.9302   92.5906   13.9463 C.ar    1  UNL1        0.0305
     17 C          67.5557   92.1359   15.3257 C.ar    1  UNL1        0.0592
     18 CL         68.5537   92.2260   16.4419 Cl      1  UNL1       -0.0822
     19 C          66.1831   91.5910   15.5890 C.ar    1  UNL1        0.0115
     20 C          65.1852   91.5009   14.4727 C.ar    1  UNL1        0.0036
     21 C          65.5598   91.9556   13.0932 C.ar    1  UNL1        0.0312
     22 C          61.4896   86.1367    9.7426 C.3     1  UNL1        0.0987
     23 N          61.4241   86.0095    8.2495 N.3     1  UNL1       -0.2937
     24 H          61.8825   86.8348    7.8633 H       1  UNL1        0.1236
     25 C          59.0146   86.8939    7.8465 C.3     1  UNL1        0.0185
     26 C          60.0949   85.8921    7.5644 C.3     1  UNL1        0.0689
@<TRIPOS>BOND
     1    25    26    1
     2    26    23    1
     3    23    22    1
     4    22     1    1
     5     1     2   ar
     6     2     3   ar
     7     3     4   ar
     8     4     9    1
     9     9    11    1
    10    11    12   ar
    11    12    13   ar
    12    13    14   ar
    13    14    15   ar
    14    15    16   ar
    15    16    17   ar
    16    17    18    1
    17    17    19   ar
    18    19    20   ar
    19    20    21   ar
    20     4     5   ar
    21     5     6   ar
    22     6     7    1
    23     6     1   ar
    24    21    11   ar
    25    21    15   ar
    26    23    24    1
    27     9    10    1
    28     7     8    1
@<TRIPOS>MOLECULE
*****
 26 28 0 0 0
SMALL
GASTEIGER

@<TRIPOS>ATOM
      1 C          62.1049   87.2560   10.8211 C.ar    1  UNL1        0.0274
      2 C          61.7308   88.4038    9.9309 C.ar    1  UNL1        0.0013
      3 C          62.1051   89.8045   10.3157 C.ar    1  UNL1        0.0145
      4 C          62.8535   90.0573   11.5908 C.ar    1  UNL1        0.0513
      5 C          63.2277   88.9095   12.4811 C.ar    1  UNL1        0.0509
      6 C          62.8534   87.5089   12.0963 C.ar    1  UNL1        0.1322
      7 O          63.2275   86.3611   12.9865 O.3     1  UNL1       -0.5057
      8 H          63.6950   86.5190   13.7830 H       1  UNL1        0.2922
      9 N          63.2278   91.4580   11.9756 N.pl3   1  UNL1       -0.3124
     10 H          62.5469   92.0657   12.3448 H       1  UNL1        0.1522
     11 C          64.6396   91.9327   11.7979 C.ar    1  UNL1        0.0513
     12 C          65.1254   92.3502   10.4416 C.ar    1  UNL1        0.0353
     13 C          66.5372   92.8249   10.2640 C.ar    1  UNL1        0.1001
     14 N          67.4631   92.8821   11.4426 N.ar    1  UNL1       -0.2437
     15 C          66.9774   92.4645   12.7990 C.ar    1  UNL1        0.0833
     16 C          67.9033   92.5216   13.9776 C.ar    1  UNL1        0.0305
     17 C          67.4176   92.1041   15.3339 C.ar    1  UNL1        0.0592
     18 CL         68.3436   92.1612   16.5126 Cl      1  UNL1       -0.0822
     19 C          66.0058   91.6294   15.5116 C.ar    1  UNL1        0.0115
     20 C          65.0798   91.5722   14.3329 C.ar    1  UNL1        0.0036
     21 C          65.5656   91.9898   12.9766 C.ar    1  UNL1        0.0312
     22 C          61.7306   85.8554   10.4363 C.3     1  UNL1        0.0987
     23 N          62.5858   84.7034   10.8739 N.3     1  UNL1       -0.2937
     24 H          63.1139   85.0209   11.6867 H       1  UNL1        0.1236
     25 C          64.3120   82.8488   10.2988 C.3     1  UNL1        0.0185
     26 C          63.5763   84.1007    9.9223 C.3     1  UNL1        0.0689
@<TRIPOS>BOND
     1    25    26    1
     2    26    23    1
     3    23    22    1
     4    22     1    1
     5     1     2   ar
     6     2     3   ar
     7     3     4   ar
     8     4     9    1
     9     9    11    1
    10    11    12   ar
    11    12    13   ar
    12    13    14   ar
    13    14    15   ar
    14    15    16   ar
    15    16    17   ar
    16    17    18    1
    17    17    19   ar
    18    19    20   ar
    19    20    21   ar
    20     4     5   ar
    21     5     6   ar
    22     6     7    1
    23     6     1   ar
    24    21    11   ar
    25    21    15   ar
    26    23    24    1
    27     9    10    1
    28     7     8    1
@<TRIPOS>MOLECULE
*****
 26 28 0 0 0
SMALL
GASTEIGER

@<TRIPOS>ATOM
      1 C          64.8841   92.2742   11.5502 C.ar    1  UNL1        0.0274
      2 C          64.1114   91.7734   10.3661 C.ar    1  UNL1        0.0013
      3 C          63.1291   90.6520   10.5313 C.ar    1  UNL1        0.0145
      4 C          62.9194   90.0312   11.8806 C.ar    1  UNL1        0.0513
      5 C          63.6921   90.5320   13.0648 C.ar    1  UNL1        0.0509
      6 C          64.6744   91.6535   12.8996 C.ar    1  UNL1        0.1322
      7 O          65.4471   92.1543   14.0837 O.3     1  UNL1       -0.5057
      8 H          65.3161   91.7665   14.9266 H       1  UNL1        0.2922
      9 N          61.9371   88.9097   12.0458 N.pl3   1  UNL1       -0.3124
     10 H          61.2936   88.9247   12.7907 H       1  UNL1        0.1522
     11 C          61.9352   87.7654   11.0759 C.ar    1  UNL1        0.0513
     12 C          61.3361   87.9394    9.7118 C.ar    1  UNL1        0.0353
     13 C          61.3342   86.7951    8.7420 C.ar    1  UNL1        0.1001
     14 N          61.9314   85.4768    9.1363 N.ar    1  UNL1       -0.2437
     15 C          62.5305   85.3028   10.5004 C.ar    1  UNL1        0.0833
     16 C          63.1277   83.9845   10.8947 C.ar    1  UNL1        0.0305
     17 C          63.7268   83.8106   12.2588 C.ar    1  UNL1        0.0592
     18 CL         64.3241   82.4923   12.6531 Cl      1  UNL1       -0.0822
     19 C          63.7287   84.9549   13.2287 C.ar    1  UNL1        0.0115
     20 C          63.1315   86.2732   12.8344 C.ar    1  UNL1        0.0036
     21 C          62.5324   86.4471   11.4702 C.ar    1  UNL1        0.0312
     22 C          65.8664   93.3957   11.3850 C.3     1  UNL1        0.0987
     23 N          66.1724   93.9293   10.0169 N.3     1  UNL1       -0.2937
     24 H          65.4356   93.5917    9.3976 H       1  UNL1        0.1236
     25 C          68.1626   92.2978    9.6600 C.3     1  UNL1        0.0185
     26 C          67.4782   93.5978    9.3574 C.3     1  UNL1        0.0689
@<TRIPOS>BOND
     1    25    26    1
     2    26    23    1
     3    23    22    1
     4    22     1    1
     5     1     2   ar
     6     2     3   ar
     7     3     4   ar
     8     4     9    1
     9     9    11    1
    10    11    12   ar
    11    12    13   ar
    12    13    14   ar
    13    14    15   ar
    14    15    16   ar
    15    16    17   ar
    16    17    18    1
    17    17    19   ar
    18    19    20   ar
    19    20    21   ar
    20     4     5   ar
    21     5     6   ar
    22     6     7    1
    23     6     1   ar
    24    21    11   ar
    25    21    15   ar
    26    23    24    1
    27     9    10    1
    28     7     8    1
@<TRIPOS>MOLECULE
*****
 26 28 0 0 0
SMALL
GASTEIGER

@<TRIPOS>ATOM
      1 C          61.0838   87.1187    9.1803 C.ar    1  UNL1        0.0274
      2 C          61.9816   86.3598    8.2486 C.ar    1  UNL1        0.0013
      3 C          62.8195   85.2297    8.7690 C.ar    1  UNL1        0.0145
      4 C          62.7596   84.8585   10.2211 C.ar    1  UNL1        0.0513
      5 C          61.8619   85.6174   11.1529 C.ar    1  UNL1        0.0509
      6 C          61.0240   86.7475   10.6325 C.ar    1  UNL1        0.1322
      7 O          60.1263   87.5065   11.5642 O.3     1  UNL1       -0.5057
      8 H          60.0889   87.2746   12.4713 H       1  UNL1        0.2922
      9 N          63.5975   83.7284   10.7415 N.pl3   1  UNL1       -0.3124
     10 H          64.3989   83.4414   10.2468 H       1  UNL1        0.1522
     11 C          63.2145   83.0356   12.0157 C.ar    1  UNL1        0.0513
     12 C          62.7580   81.6072   11.9847 C.ar    1  UNL1        0.0353
     13 C          62.3749   80.9145   13.2588 C.ar    1  UNL1        0.1001
     14 N          62.4484   81.6502   14.5639 N.ar    1  UNL1       -0.2437
     15 C          62.9049   83.0787   14.5949 C.ar    1  UNL1        0.0833
     16 C          62.9784   83.8145   15.8999 C.ar    1  UNL1        0.0305
     17 C          63.4349   85.2430   15.9309 C.ar    1  UNL1        0.0592
     18 CL         63.5084   85.9787   17.2360 Cl      1  UNL1       -0.0822
     19 C          63.8180   85.9357   14.6568 C.ar    1  UNL1        0.0115
     20 C          63.7445   85.2000   13.3517 C.ar    1  UNL1        0.0036
     21 C          63.2879   83.7714   13.3208 C.ar    1  UNL1        0.0312
     22 C          60.2459   88.2488    8.6599 C.3     1  UNL1        0.0987
     23 N          60.5035   89.6506    9.1275 N.3     1  UNL1       -0.2937
     24 H          60.3407   90.2623    8.3277 H       1  UNL1        0.1236
     25 C          61.9647   90.4553   11.1193 C.3     1  UNL1        0.0185
     26 C          61.8446   90.0194    9.6890 C.3     1  UNL1        0.0689
@<TRIPOS>BOND
     1    25    26    1
     2    26    23    1
     3    23    22    1
     4    22     1    1
     5     1     2   ar
     6     2     3   ar
     7     3     4   ar
     8     4     9    1
     9     9    11    1
    10    11    12   ar
    11    12    13   ar
    12    13    14   ar
    13    14    15   ar
    14    15    16   ar
    15    16    17   ar
    16    17    18    1
    17    17    19   ar
    18    19    20   ar
    19    20    21   ar
    20     4     5   ar
    21     5     6   ar
    22     6     7    1
    23     6     1   ar
    24    21    11   ar
    25    21    15   ar
    26    23    24    1
    27     9    10    1
    28     7     8    1
@<TRIPOS>MOLECULE
*****
 26 28 0 0 0
SMALL
GASTEIGER

@<TRIPOS>ATOM
      1 C          65.6435   92.7010   11.5578 C.ar    1  UNL1        0.0274
      2 C          64.6579   92.2966   10.5019 C.ar    1  UNL1        0.0013
      3 C          63.5448   91.3492   10.8384 C.ar    1  UNL1        0.0145
      4 C          63.4173   90.8060   12.2307 C.ar    1  UNL1        0.0513
      5 C          64.4030   91.2104   13.2867 C.ar    1  UNL1        0.0509
      6 C          65.5161   92.1579   12.9503 C.ar    1  UNL1        0.1322
      7 O          66.5017   92.5622   14.0062 O.3     1  UNL1       -0.5057
      8 H          66.4221   92.2229   14.8759 H       1  UNL1        0.2922
      9 N          62.3042   89.8585   12.5672 N.pl3   1  UNL1       -0.3124
     10 H          61.5385   90.1688   13.1027 H       1  UNL1        0.1522
     11 C          62.3576   88.4382   12.0877 C.ar    1  UNL1        0.0513
     12 C          63.2146   87.4367   12.8034 C.ar    1  UNL1        0.0353
     13 C          63.2680   86.0164   12.3239 C.ar    1  UNL1        0.1001
     14 N          62.4643   85.5977   11.1286 N.ar    1  UNL1       -0.2437
     15 C          61.6072   86.5992   10.4129 C.ar    1  UNL1        0.0833
     16 C          60.8035   86.1804    9.2176 C.ar    1  UNL1        0.0305
     17 C          59.9464   87.1819    8.5018 C.ar    1  UNL1        0.0592
     18 CL         59.1427   86.7632    7.3065 Cl      1  UNL1       -0.0822
     19 C          59.8930   88.6023    8.9813 C.ar    1  UNL1        0.0115
     20 C          60.6967   89.0210   10.1766 C.ar    1  UNL1        0.0036
     21 C          61.5538   88.0194   10.8924 C.ar    1  UNL1        0.0312
     22 C          66.7567   93.6485   11.2214 C.3     1  UNL1        0.0987
     23 N          66.8803   94.1968    9.8307 N.3     1  UNL1       -0.2937
     24 H          65.9724   94.0714    9.3830 H       1  UNL1        0.1236
     25 C          68.6353   92.3730    9.2444 C.3     1  UNL1        0.0185
     26 C          67.9072   93.6362    8.8920 C.3     1  UNL1        0.0689
@<TRIPOS>BOND
     1    25    26    1
     2    26    23    1
     3    23    22    1
     4    22     1    1
     5     1     2   ar
     6     2     3   ar
     7     3     4   ar
     8     4     9    1
     9     9    11    1
    10    11    12   ar
    11    12    13   ar
    12    13    14   ar
    13    14    15   ar
    14    15    16   ar
    15    16    17   ar
    16    17    18    1
    17    17    19   ar
    18    19    20   ar
    19    20    21   ar
    20     4     5   ar
    21     5     6   ar
    22     6     7    1
    23     6     1   ar
    24    21    11   ar
    25    21    15   ar
    26    23    24    1
    27     9    10    1
    28     7     8    1
@<TRIPOS>MOLECULE
*****
 26 28 0 0 0
SMALL
GASTEIGER

@<TRIPOS>ATOM
      1 C          64.6138   91.5916   12.1841 C.ar    1  UNL1        0.0274
      2 C          63.8958   91.2767   10.9053 C.ar    1  UNL1        0.0013
      3 C          63.1361   89.9906   10.7688 C.ar    1  UNL1        0.0145
      4 C          63.0943   89.0193   11.9111 C.ar    1  UNL1        0.0513
      5 C          63.8123   89.3342   13.1900 C.ar    1  UNL1        0.0509
      6 C          64.5720   90.6203   13.3265 C.ar    1  UNL1        0.1322
      7 O          65.2900   90.9352   14.6053 O.3     1  UNL1       -0.5057
      8 H          65.2639   90.3285   15.3189 H       1  UNL1        0.2922
      9 N          62.3345   87.7332   11.7746 N.pl3   1  UNL1       -0.3124
     10 H          62.5290   86.9802   12.3783 H       1  UNL1        0.1522
     11 C          61.2785   87.5944   10.7184 C.ar    1  UNL1        0.0513
     12 C          59.9716   88.3158   10.8651 C.ar    1  UNL1        0.0353
     13 C          58.9157   88.1770    9.8089 C.ar    1  UNL1        0.1001
     14 N          59.1666   87.3168    8.6059 N.ar    1  UNL1       -0.2437
     15 C          60.4735   86.5953    8.4592 C.ar    1  UNL1        0.0833
     16 C          60.7244   85.7351    7.2563 C.ar    1  UNL1        0.0305
     17 C          62.0313   85.0137    7.1096 C.ar    1  UNL1        0.0592
     18 CL         62.2822   84.1534    5.9067 Cl      1  UNL1       -0.0822
     19 C          63.0873   85.1525    8.1659 C.ar    1  UNL1        0.0115
     20 C          62.8364   86.0127    9.3688 C.ar    1  UNL1        0.0036
     21 C          61.5294   86.7342    9.5155 C.ar    1  UNL1        0.0312
     22 C          65.3735   92.8777   12.3206 C.3     1  UNL1        0.0987
     23 N          66.7131   93.0309   11.6633 N.3     1  UNL1       -0.2937
     24 H          67.3079   93.5349   12.3210 H       1  UNL1        0.1236
     25 C          67.9584   93.4202    9.4166 C.3     1  UNL1        0.0185
     26 C          66.8256   93.7402   10.3464 C.3     1  UNL1        0.0689
@<TRIPOS>BOND
     1    25    26    1
     2    26    23    1
     3    23    22    1
     4    22     1    1
     5     1     2   ar
     6     2     3   ar
     7     3     4   ar
     8     4     9    1
     9     9    11    1
    10    11    12   ar
    11    12    13   ar
    12    13    14   ar
    13    14    15   ar
    14    15    16   ar
    15    16    17   ar
    16    17    18    1
    17    17    19   ar
    18    19    20   ar
    19    20    21   ar
    20     4     5   ar
    21     5     6   ar
    22     6     7    1
    23     6     1   ar
    24    21    11   ar
    25    21    15   ar
    26    23    24    1
    27     9    10    1
    28     7     8    1
@<TRIPOS>MOLECULE
*****
 26 28 0 0 0
SMALL
GASTEIGER

@<TRIPOS>ATOM
      1 C          61.0382   88.6489   10.5669 C.ar    1  UNL1        0.0274
      2 C          60.9343   87.1561   10.4638 C.ar    1  UNL1        0.0013
      3 C          61.8418   86.2830   11.2788 C.ar    1  UNL1        0.0145
      4 C          62.8532   86.9027   12.1969 C.ar    1  UNL1        0.0513
      5 C          62.9572   88.3956   12.3000 C.ar    1  UNL1        0.0509
      6 C          62.0497   89.2687   11.4850 C.ar    1  UNL1        0.1322
      7 O          62.1536   90.7615   11.5882 O.3     1  UNL1       -0.5057
      8 H          62.7854   91.1487   12.1617 H       1  UNL1        0.2922
      9 N          63.7608   86.0297   13.0118 N.pl3   1  UNL1       -0.3124
     10 H          64.6841   86.3167   13.1971 H       1  UNL1        0.1522
     11 C          63.2614   84.7193   13.5445 C.ar    1  UNL1        0.0513
     12 C          62.7980   84.6157   14.9673 C.ar    1  UNL1        0.0353
     13 C          62.2987   83.3054   15.4999 C.ar    1  UNL1        0.1001
     14 N          62.2628   82.0987   14.6097 N.ar    1  UNL1       -0.2437
     15 C          62.7262   82.2023   13.1869 C.ar    1  UNL1        0.0833
     16 C          62.6903   80.9955   12.2967 C.ar    1  UNL1        0.0305
     17 C          63.1537   81.0991   10.8739 C.ar    1  UNL1        0.0592
     18 CL         63.1178   79.8923    9.9836 Cl      1  UNL1       -0.0822
     19 C          63.6530   82.4095   10.3412 C.ar    1  UNL1        0.0115
     20 C          63.6889   83.6162   11.2314 C.ar    1  UNL1        0.0036
     21 C          63.2255   83.5126   12.6543 C.ar    1  UNL1        0.0312
     22 C          60.1307   89.5220    9.7520 C.3     1  UNL1        0.0987
     23 N          60.2217   89.5077    8.2548 N.3     1  UNL1       -0.2937
     24 H          60.1503   90.4772    7.9462 H       1  UNL1        0.1236
     25 C          59.0735   87.2488    7.6811 C.3     1  UNL1        0.0185
     26 C          59.2282   88.7229    7.4505 C.3     1  UNL1        0.0689
@<TRIPOS>BOND
     1    25    26    1
     2    26    23    1
     3    23    22    1
     4    22     1    1
     5     1     2   ar
     6     2     3   ar
     7     3     4   ar
     8     4     9    1
     9     9    11    1
    10    11    12   ar
    11    12    13   ar
    12    13    14   ar
    13    14    15   ar
    14    15    16   ar
    15    16    17   ar
    16    17    18    1
    17    17    19   ar
    18    19    20   ar
    19    20    21   ar
    20     4     5   ar
    21     5     6   ar
    22     6     7    1
    23     6     1   ar
    24    21    11   ar
    25    21    15   ar
    26    23    24    1
    27     9    10    1
    28     7     8    1
