@<TRIPOS>MOLECULE
*****
 24 27 0 0 0
SMALL
GASTEIGER

@<TRIPOS>ATOM
      1 C          66.8266   93.2143   13.7691 C.3     1  UNL1        0.1363
      2 N          65.7253   92.3945   13.1649 N.ar    1  UNL1       -0.2667
      3 C          65.6192   92.2634   11.6744 C.ar    1  UNL1        0.2036
      4 N          64.5179   91.4435   11.0701 N.ar    1  UNL1       -0.2147
      5 C          63.5227   90.7549   11.9562 C.ar    1  UNL1        0.0911
      6 C          63.6288   90.8860   13.4468 C.ar    1  UNL1        0.0801
      7 C          64.7301   91.7058   14.0510 C.ar    1  UNL1        0.2645
      8 O          64.8361   91.8369   15.5415 O.2     1  UNL1       -0.2668
      9 N          66.6144   92.9520   10.7882 N.pl3   1  UNL1       -0.2735
     10 C          67.7695   92.1832   10.2184 C.3     1  UNL1        0.1257
     11 C          68.7647   92.8718    9.3323 C.3     1  UNL1        0.1637
     12 O          68.6048   94.3293    9.0157 O.3     1  UNL1       -0.3501
     13 C          67.4497   95.0981    9.5855 C.3     1  UNL1        0.1652
     14 C          67.0352   96.5334    9.4506 C.3     1  UNL1        0.1734
     15 O          65.7838   96.7318   10.2536 O.3     1  UNL1       -0.3493
     16 C          65.4249   95.4192   10.8846 C.3     1  UNL1        0.1645
     17 C          66.4545   94.4095   10.4717 C.3     1  UNL1        0.1346
     18 C          62.4215   89.9352   11.3520 C.ar    1  UNL1        0.0485
     19 C          61.3357   90.6038   10.5619 C.ar    1  UNL1        0.0244
     20 C          60.2344   89.7840    9.9577 C.ar    1  UNL1        0.0991
     21 N          60.2190   88.2956   10.1435 N.ar    1  UNL1       -0.2400
     22 C          61.3047   87.6270   10.9335 C.ar    1  UNL1        0.1285
     23 C          62.4059   88.4468   11.5377 C.ar    1  UNL1        0.1606
     24 F          63.4917   87.7782   12.3277 F       1  UNL1       -0.2025
@<TRIPOS>BOND
     1     1     2    1
     2     2     3   ar
     3     3     9    1
     4     9    10    1
     5    10    11    1
     6    11    12    1
     7    12    13    1
     8    13    14    1
     9    14    15    1
    10    15    16    1
    11    17    16    1
    12     3     4   ar
    13     4     5   ar
    14     5    18    1
    15    18    19   ar
    16    19    20   ar
    17    20    21   ar
    18    21    22   ar
    19    22    23   ar
    20    23    24    1
    21     5     6   ar
    22     6     7   ar
    23     7     8    2
    24     7     2   ar
    25    17     9    1
    26    23    18   ar
    27    17    13    1
@<TRIPOS>MOLECULE
*****
 24 27 0 0 0
SMALL
GASTEIGER

@<TRIPOS>ATOM
      1 C          66.6442   93.5193   13.9501 C.3     1  UNL1        0.1363
      2 N          65.6453   92.6046   13.3055 N.ar    1  UNL1       -0.2667
      3 C          65.3640   92.7172   11.8364 C.ar    1  UNL1        0.2036
      4 N          64.3650   91.8026   11.1918 N.ar    1  UNL1       -0.2147
      5 C          63.6473   90.7754   12.0162 C.ar    1  UNL1        0.0911
      6 C          63.9286   90.6627   13.4853 C.ar    1  UNL1        0.0801
      7 C          64.9275   91.5774   14.1299 C.ar    1  UNL1        0.2645
      8 O          65.2088   91.4648   15.5990 O.2     1  UNL1       -0.2668
      9 N          66.0817   93.7445   11.0119 N.pl3   1  UNL1       -0.2735
     10 C          65.7826   95.2019   11.2029 C.3     1  UNL1        0.1257
     11 C          66.5002   96.2290   10.3785 C.3     1  UNL1        0.1637
     12 O          67.5170   95.7989    9.3630 O.3     1  UNL1       -0.3501
     13 C          67.8161   94.3415    9.1720 C.3     1  UNL1        0.1652
     14 C          68.7603   93.6225    8.2547 C.3     1  UNL1        0.1734
     15 O          68.6262   92.1509    8.5123 O.3     1  UNL1       -0.3493
     16 C          67.5991   91.9604    9.5888 C.3     1  UNL1        0.1645
     17 C          67.0984   93.3143    9.9965 C.3     1  UNL1        0.1346
     18 C          62.6484   89.8608   11.3716 C.ar    1  UNL1        0.0485
     19 C          61.6223   90.4159   10.4286 C.ar    1  UNL1        0.0244
     20 C          60.6234   89.5013    9.7841 C.ar    1  UNL1        0.0991
     21 N          60.6505   88.0314   10.0825 N.ar    1  UNL1       -0.2400
     22 C          61.6764   87.4764   11.0254 C.ar    1  UNL1        0.1285
     23 C          62.6754   88.3910   11.6699 C.ar    1  UNL1        0.1606
     24 F          63.7014   87.8359   12.6129 F       1  UNL1       -0.2025
@<TRIPOS>BOND
     1     1     2    1
     2     2     3   ar
     3     3     9    1
     4     9    10    1
     5    10    11    1
     6    11    12    1
     7    12    13    1
     8    13    14    1
     9    14    15    1
    10    15    16    1
    11    17    16    1
    12     3     4   ar
    13     4     5   ar
    14     5    18    1
    15    18    19   ar
    16    19    20   ar
    17    20    21   ar
    18    21    22   ar
    19    22    23   ar
    20    23    24    1
    21     5     6   ar
    22     6     7   ar
    23     7     8    2
    24     7     2   ar
    25    17     9    1
    26    23    18   ar
    27    17    13    1
@<TRIPOS>MOLECULE
*****
 24 27 0 0 0
SMALL
GASTEIGER

@<TRIPOS>ATOM
      1 C          62.7945   90.0306   14.4802 C.3     1  UNL1        0.1363
      2 N          63.7409   90.7607   13.5740 N.ar    1  UNL1       -0.2667
      3 C          63.5057   90.7675   12.0926 C.ar    1  UNL1        0.2036
      4 N          64.4521   91.4976   11.1862 N.ar    1  UNL1       -0.2147
      5 C          65.6337   92.2208   11.7613 C.ar    1  UNL1        0.0911
      6 C          65.8689   92.2140   13.2428 C.ar    1  UNL1        0.0801
      7 C          64.9225   91.4840   14.1490 C.ar    1  UNL1        0.2645
      8 O          65.1577   91.4772   15.6305 O.2     1  UNL1       -0.2668
      9 N          62.3241   90.0442   11.5174 N.pl3   1  UNL1       -0.2735
     10 C          61.2044   90.8187   10.8878 C.3     1  UNL1        0.1257
     11 C          60.0229   90.0955   10.3127 C.3     1  UNL1        0.1637
     12 O          59.9610   88.5977   10.3671 O.3     1  UNL1       -0.3501
     13 C          61.0807   87.8232   10.9967 C.3     1  UNL1        0.1652
     14 C          61.2964   86.3520   11.1945 C.3     1  UNL1        0.1734
     15 O          62.6114   86.1661   11.8920 O.3     1  UNL1       -0.3493
     16 C          63.2083   87.5223   12.1252 C.3     1  UNL1        0.1645
     17 C          62.2623   88.5465   11.5718 C.3     1  UNL1        0.1346
     18 C          66.5800   92.9509   10.8550 C.ar    1  UNL1        0.0485
     19 C          67.6593   92.1984   10.1346 C.ar    1  UNL1        0.0244
     20 C          68.6057   92.9285    9.2283 C.ar    1  UNL1        0.0991
     21 N          68.4727   94.4111    9.0425 N.ar    1  UNL1       -0.2400
     22 C          67.3935   95.1634    9.7629 C.ar    1  UNL1        0.1285
     23 C          66.4471   94.4333   10.6692 C.ar    1  UNL1        0.1606
     24 F          65.3678   95.1858   11.3896 F       1  UNL1       -0.2025
@<TRIPOS>BOND
     1     1     2    1
     2     2     3   ar
     3     3     9    1
     4     9    10    1
     5    10    11    1
     6    11    12    1
     7    12    13    1
     8    13    14    1
     9    14    15    1
    10    15    16    1
    11    17    16    1
    12     3     4   ar
    13     4     5   ar
    14     5    18    1
    15    18    19   ar
    16    19    20   ar
    17    20    21   ar
    18    21    22   ar
    19    22    23   ar
    20    23    24    1
    21     5     6   ar
    22     6     7   ar
    23     7     8    2
    24     7     2   ar
    25    17     9    1
    26    23    18   ar
    27    17    13    1
@<TRIPOS>MOLECULE
*****
 24 27 0 0 0
SMALL
GASTEIGER

@<TRIPOS>ATOM
      1 C          60.6676   86.2361    9.5458 C.3     1  UNL1        0.1363
      2 N          61.3878   87.1937   10.4482 N.ar    1  UNL1       -0.2667
      3 C          62.4885   86.7003   11.3399 C.ar    1  UNL1        0.2036
      4 N          63.2088   87.6579   12.2424 N.ar    1  UNL1       -0.2147
      5 C          62.8283   89.1087   12.2531 C.ar    1  UNL1        0.0911
      6 C          61.7276   89.6022   11.3614 C.ar    1  UNL1        0.0801
      7 C          61.0074   88.6446   10.4590 C.ar    1  UNL1        0.2645
      8 O          59.9067   89.1380    9.5673 O.2     1  UNL1       -0.2668
      9 N          62.8690   85.2494   11.3292 N.pl3   1  UNL1       -0.2735
     10 C          63.3540   84.6106   10.0617 C.3     1  UNL1        0.1257
     11 C          63.7344   83.1597   10.0509 C.3     1  UNL1        0.1637
     12 O          63.6299   82.3476   11.3077 O.3     1  UNL1       -0.3501
     13 C          63.1449   82.9864   12.5753 C.3     1  UNL1        0.1652
     14 C          62.9388   82.4429   13.9580 C.3     1  UNL1        0.1734
     15 O          62.4309   83.5579   14.8234 O.3     1  UNL1       -0.3493
     16 C          62.3232   84.7905   13.9754 C.3     1  UNL1        0.1645
     17 C          62.7644   84.4373   12.5860 C.3     1  UNL1        0.1346
     18 C          63.5485   90.0663   13.1555 C.ar    1  UNL1        0.0485
     19 C          63.4345   89.9238   14.6444 C.ar    1  UNL1        0.0244
     20 C          64.1547   90.8814   15.5468 C.ar    1  UNL1        0.0991
     21 N          64.9890   91.9815   14.9602 N.ar    1  UNL1       -0.2400
     22 C          65.1030   92.1239   13.4715 C.ar    1  UNL1        0.1285
     23 C          64.3828   91.1663   12.5691 C.ar    1  UNL1        0.1606
     24 F          64.4968   91.3088   11.0802 F       1  UNL1       -0.2025
@<TRIPOS>BOND
     1     1     2    1
     2     2     3   ar
     3     3     9    1
     4     9    10    1
     5    10    11    1
     6    11    12    1
     7    12    13    1
     8    13    14    1
     9    14    15    1
    10    15    16    1
    11    17    16    1
    12     3     4   ar
    13     4     5   ar
    14     5    18    1
    15    18    19   ar
    16    19    20   ar
    17    20    21   ar
    18    21    22   ar
    19    22    23   ar
    20    23    24    1
    21     5     6   ar
    22     6     7   ar
    23     7     8    2
    24     7     2   ar
    25    17     9    1
    26    23    18   ar
    27    17    13    1
@<TRIPOS>MOLECULE
*****
 24 27 0 0 0
SMALL
GASTEIGER

@<TRIPOS>ATOM
      1 C          61.6867   85.4757   10.7932 C.3     1  UNL1        0.1363
      2 N          62.3112   86.6316   11.5170 N.ar    1  UNL1       -0.2667
      3 C          63.0549   86.4002   12.7990 C.ar    1  UNL1        0.2036
      4 N          63.6795   87.5561   13.5229 N.ar    1  UNL1       -0.2147
      5 C          63.5603   88.9432   12.9649 C.ar    1  UNL1        0.0911
      6 C          62.8166   89.1747   11.6829 C.ar    1  UNL1        0.0801
      7 C          62.1921   88.0188   10.9590 C.ar    1  UNL1        0.2645
      8 O          61.4484   88.2502    9.6771 O.2     1  UNL1       -0.2668
      9 N          63.1740   85.0130   13.3570 N.pl3   1  UNL1       -0.2735
     10 C          62.6666   84.7133   14.7364 C.3     1  UNL1        0.1257
     11 C          62.7857   83.3262   15.2944 C.3     1  UNL1        0.1637
     12 O          63.4124   82.2385   14.4732 O.3     1  UNL1       -0.3501
     13 C          63.9199   82.5382   13.0938 C.3     1  UNL1        0.1652
     14 C          64.5794   81.6769   12.0579 C.3     1  UNL1        0.1734
     15 O          64.8679   82.5318   10.8597 O.3     1  UNL1       -0.3493
     16 C          64.3866   83.9214   11.1549 C.3     1  UNL1        0.1645
     17 C          63.8007   83.9254   12.5358 C.3     1  UNL1        0.1346
     18 C          64.1848   90.0991   13.6887 C.ar    1  UNL1        0.0485
     19 C          65.0988   91.0368   12.9570 C.ar    1  UNL1        0.0244
     20 C          65.7233   92.1926   13.6809 C.ar    1  UNL1        0.0991
     21 N          65.4338   92.4107   15.1365 N.ar    1  UNL1       -0.2400
     22 C          64.5199   91.4730   15.8682 C.ar    1  UNL1        0.1285
     23 C          63.8954   90.3171   15.1443 C.ar    1  UNL1        0.1606
     24 F          62.9815   89.3794   15.8760 F       1  UNL1       -0.2025
@<TRIPOS>BOND
     1     1     2    1
     2     2     3   ar
     3     3     9    1
     4     9    10    1
     5    10    11    1
     6    11    12    1
     7    12    13    1
     8    13    14    1
     9    14    15    1
    10    15    16    1
    11    17    16    1
    12     3     4   ar
    13     4     5   ar
    14     5    18    1
    15    18    19   ar
    16    19    20   ar
    17    20    21   ar
    18    21    22   ar
    19    22    23   ar
    20    23    24    1
    21     5     6   ar
    22     6     7   ar
    23     7     8    2
    24     7     2   ar
    25    17     9    1
    26    23    18   ar
    27    17    13    1
@<TRIPOS>MOLECULE
*****
 24 27 0 0 0
SMALL
GASTEIGER

@<TRIPOS>ATOM
      1 C          63.5958   90.0213   15.1308 C.3     1  UNL1        0.1363
      2 N          64.2458   90.8724   14.0805 N.ar    1  UNL1       -0.2667
      3 C          64.0161   90.5771   12.6279 C.ar    1  UNL1        0.2036
      4 N          64.6662   91.4283   11.5776 N.ar    1  UNL1       -0.2147
      5 C          65.5459   92.5745   11.9799 C.ar    1  UNL1        0.0911
      6 C          65.7757   92.8699   13.4325 C.ar    1  UNL1        0.0801
      7 C          65.1257   92.0188   14.4828 C.ar    1  UNL1        0.2645
      8 O          65.3554   92.3140   15.9354 O.2     1  UNL1       -0.2668
      9 N          63.1363   89.4308   12.2256 N.pl3   1  UNL1       -0.2735
     10 C          63.5181   88.0275   12.5928 C.3     1  UNL1        0.1257
     11 C          62.6384   86.8812   12.1904 C.3     1  UNL1        0.1637
     12 O          61.3767   87.1381   11.4209 O.3     1  UNL1       -0.3501
     13 C          60.9949   88.5415   11.0537 C.3     1  UNL1        0.1652
     14 C          59.8205   89.0988   10.3052 C.3     1  UNL1        0.1734
     15 O          59.9746   90.5897   10.2449 O.3     1  UNL1       -0.3493
     16 C          61.2441   90.9537   10.9562 C.3     1  UNL1        0.1645
     17 C          61.8747   89.6878   11.4560 C.3     1  UNL1        0.1346
     18 C          66.1960   93.4256   10.9296 C.ar    1  UNL1        0.0485
     19 C          65.6689   94.8012   10.6470 C.ar    1  UNL1        0.0244
     20 C          66.3190   95.6523    9.5967 C.ar    1  UNL1        0.0991
     21 N          67.4962   95.1277    8.8292 N.ar    1  UNL1       -0.2400
     22 C          68.0232   93.7522    9.1118 C.ar    1  UNL1        0.1285
     23 C          67.3732   92.9011   10.1621 C.ar    1  UNL1        0.1606
     24 F          67.9003   91.5255   10.4448 F       1  UNL1       -0.2025
@<TRIPOS>BOND
     1     1     2    1
     2     2     3   ar
     3     3     9    1
     4     9    10    1
     5    10    11    1
     6    11    12    1
     7    12    13    1
     8    13    14    1
     9    14    15    1
    10    15    16    1
    11    17    16    1
    12     3     4   ar
    13     4     5   ar
    14     5    18    1
    15    18    19   ar
    16    19    20   ar
    17    20    21   ar
    18    21    22   ar
    19    22    23   ar
    20    23    24    1
    21     5     6   ar
    22     6     7   ar
    23     7     8    2
    24     7     2   ar
    25    17     9    1
    26    23    18   ar
    27    17    13    1
@<TRIPOS>MOLECULE
*****
 24 27 0 0 0
SMALL
GASTEIGER

@<TRIPOS>ATOM
      1 C          63.3350   89.4987   16.7826 C.3     1  UNL1        0.1363
      2 N          63.4345   88.1768   16.0808 N.ar    1  UNL1       -0.2667
      3 C          63.8339   88.1229   14.6359 C.ar    1  UNL1        0.2036
      4 N          63.9334   86.8009   13.9340 N.ar    1  UNL1       -0.2147
      5 C          63.6334   85.5329   14.6770 C.ar    1  UNL1        0.0911
      6 C          63.2340   85.5867   16.1219 C.ar    1  UNL1        0.0801
      7 C          63.1346   86.9087   16.8237 C.ar    1  UNL1        0.2645
      8 O          62.7352   86.9625   18.2685 O.2     1  UNL1       -0.2668
      9 N          64.1338   89.3910   13.8929 N.pl3   1  UNL1       -0.2735
     10 C          65.1462   90.3562   14.4347 C.3     1  UNL1        0.1257
     11 C          65.4462   91.6242   13.6917 C.3     1  UNL1        0.1637
     12 O          64.7337   91.9271   12.4069 O.3     1  UNL1       -0.3501
     13 C          63.7213   90.9620   11.8651 C.3     1  UNL1        0.1652
     14 C          62.8670   90.9902   10.6326 C.3     1  UNL1        0.1734
     15 O          62.0390   89.7396   10.6138 O.3     1  UNL1       -0.3493
     16 C          62.3816   88.9384   11.8348 C.3     1  UNL1        0.1645
     17 C          63.4214   89.6939   12.6081 C.3     1  UNL1        0.1346
     18 C          63.7329   84.2110   13.9751 C.ar    1  UNL1        0.0485
     19 C          64.4214   84.1175   12.6458 C.ar    1  UNL1        0.0244
     20 C          64.5209   82.7956   11.9440 C.ar    1  UNL1        0.0991
     21 N          63.9318   81.5671   12.5716 N.ar    1  UNL1       -0.2400
     22 C          63.2433   81.6606   13.9009 C.ar    1  UNL1        0.1285
     23 C          63.1438   82.9825   14.6027 C.ar    1  UNL1        0.1606
     24 F          62.4553   83.0760   15.9321 F       1  UNL1       -0.2025
@<TRIPOS>BOND
     1     1     2    1
     2     2     3   ar
     3     3     9    1
     4     9    10    1
     5    10    11    1
     6    11    12    1
     7    12    13    1
     8    13    14    1
     9    14    15    1
    10    15    16    1
    11    17    16    1
    12     3     4   ar
    13     4     5   ar
    14     5    18    1
    15    18    19   ar
    16    19    20   ar
    17    20    21   ar
    18    21    22   ar
    19    22    23   ar
    20    23    24    1
    21     5     6   ar
    22     6     7   ar
    23     7     8    2
    24     7     2   ar
    25    17     9    1
    26    23    18   ar
    27    17    13    1
@<TRIPOS>MOLECULE
*****
 24 27 0 0 0
SMALL
GASTEIGER

@<TRIPOS>ATOM
      1 C          64.0046   83.2557   10.1321 C.3     1  UNL1        0.1363
      2 N          63.2405   84.5296   10.3397 N.ar    1  UNL1       -0.2667
      3 C          62.9244   84.9965   11.7297 C.ar    1  UNL1        0.2036
      4 N          62.1602   86.2706   11.9373 N.ar    1  UNL1       -0.2147
      5 C          61.7122   87.0776   10.7550 C.ar    1  UNL1        0.0911
      6 C          62.0283   86.6107    9.3649 C.ar    1  UNL1        0.0801
      7 C          62.7925   85.3367    9.1574 C.ar    1  UNL1        0.2645
      8 O          63.1086   84.8698    7.7674 O.2     1  UNL1       -0.2668
      9 N          63.3724   84.1895   12.9121 N.pl3   1  UNL1       -0.2735
     10 C          64.1917   84.8322   13.9917 C.3     1  UNL1        0.1257
     11 C          64.6397   84.0252   15.1741 C.3     1  UNL1        0.1637
     12 O          64.2684   82.5755   15.2768 O.3     1  UNL1       -0.3501
     13 C          63.4491   81.9328   14.1971 C.3     1  UNL1        0.1652
     14 C          62.9339   80.5345   14.0261 C.3     1  UNL1        0.1734
     15 O          62.1674   80.4774   12.7380 O.3     1  UNL1       -0.3493
     16 C          62.2090   81.8403   12.1129 C.3     1  UNL1        0.1645
     17 C          63.0011   82.7398   13.0147 C.3     1  UNL1        0.1346
     18 C          60.9481   88.3515   10.9626 C.ar    1  UNL1        0.0485
     19 C          59.5976   88.3183   11.6146 C.ar    1  UNL1        0.0244
     20 C          58.8335   89.5923   11.8222 C.ar    1  UNL1        0.0991
     21 N          59.4199   90.8995   11.3777 N.ar    1  UNL1       -0.2400
     22 C          60.7703   90.9326   10.7257 C.ar    1  UNL1        0.1285
     23 C          61.5344   89.6587   10.5181 C.ar    1  UNL1        0.1606
     24 F          62.8849   89.6919    9.8661 F       1  UNL1       -0.2025
@<TRIPOS>BOND
     1     1     2    1
     2     2     3   ar
     3     3     9    1
     4     9    10    1
     5    10    11    1
     6    11    12    1
     7    12    13    1
     8    13    14    1
     9    14    15    1
    10    15    16    1
    11    17    16    1
    12     3     4   ar
    13     4     5   ar
    14     5    18    1
    15    18    19   ar
    16    19    20   ar
    17    20    21   ar
    18    21    22   ar
    19    22    23   ar
    20    23    24    1
    21     5     6   ar
    22     6     7   ar
    23     7     8    2
    24     7     2   ar
    25    17     9    1
    26    23    18   ar
    27    17    13    1
@<TRIPOS>MOLECULE
*****
 24 27 0 0 0
SMALL
GASTEIGER

@<TRIPOS>ATOM
      1 C          60.4266   87.4917   10.6160 C.3     1  UNL1        0.1363
      2 N          61.4281   88.4148   11.2445 N.ar    1  UNL1       -0.2667
      3 C          62.6132   87.8525   11.9719 C.ar    1  UNL1        0.2036
      4 N          63.6147   88.7756   12.6005 N.ar    1  UNL1       -0.2147
      5 C          63.4310   90.2609   12.5016 C.ar    1  UNL1        0.0911
      6 C          62.2459   90.8234   11.7741 C.ar    1  UNL1        0.0801
      7 C          61.2444   89.9003   11.1456 C.ar    1  UNL1        0.2645
      8 O          60.0593   90.4626   10.4182 O.2     1  UNL1       -0.2668
      9 N          62.7969   86.3671   12.0709 N.pl3   1  UNL1       -0.2735
     10 C          62.3076   85.4757   10.9682 C.3     1  UNL1        0.1257
     11 C          62.4913   83.9904   11.0671 C.3     1  UNL1        0.1637
     12 O          63.1644   83.3962   12.2688 O.3     1  UNL1       -0.3501
     13 C          63.6538   84.2875   13.3715 C.3     1  UNL1        0.1652
     14 C          64.3488   83.9917   14.6674 C.3     1  UNL1        0.1734
     15 O          64.5947   85.2943   15.3693 O.3     1  UNL1       -0.3493
     16 C          64.0516   86.3952   14.5073 C.3     1  UNL1        0.1645
     17 C          63.4700   85.7730   13.2725 C.3     1  UNL1        0.1346
     18 C          64.4325   91.1840   13.1300 C.ar    1  UNL1        0.0485
     19 C          65.1240   92.2209   12.2953 C.ar    1  UNL1        0.0244
     20 C          66.1254   93.1440   12.9238 C.ar    1  UNL1        0.0991
     21 N          66.4353   93.0301   14.3871 N.ar    1  UNL1       -0.2400
     22 C          65.7439   91.9933   15.2217 C.ar    1  UNL1        0.1285
     23 C          64.7424   91.0702   14.5932 C.ar    1  UNL1        0.1606
     24 F          64.0509   90.0334   15.4280 F       1  UNL1       -0.2025
@<TRIPOS>BOND
     1     1     2    1
     2     2     3   ar
     3     3     9    1
     4     9    10    1
     5    10    11    1
     6    11    12    1
     7    12    13    1
     8    13    14    1
     9    14    15    1
    10    15    16    1
    11    17    16    1
    12     3     4   ar
    13     4     5   ar
    14     5    18    1
    15    18    19   ar
    16    19    20   ar
    17    20    21   ar
    18    21    22   ar
    19    22    23   ar
    20    23    24    1
    21     5     6   ar
    22     6     7   ar
    23     7     8    2
    24     7     2   ar
    25    17     9    1
    26    23    18   ar
    27    17    13    1
