@<TRIPOS>MOLECULE
*****
 51 55 0 0 0
SMALL
GASTEIGER

@<TRIPOS>ATOM
      1 C          64.7358   90.6196   14.5396 C.3     1  UNL1        0.0760
      2 C          63.2887   88.8183   15.7276 C.2     1  UNL1        0.2406
      3 O          62.0689   89.6689   15.5314 O.2     1  UNL1       -0.2733
      4 N          64.6222   89.2936   15.2317 N.am    1  UNL1       -0.3043
      5 H          65.4228   88.7354   15.3605 H       1  UNL1        0.1494
      6 N          63.7858   84.4819   13.8342 N.am    1  UNL1       -0.2566
      7 C          64.0938   84.2254   12.3889 C.3     1  UNL1        0.1168
      8 C          63.6485   85.8897   14.3335 C.2     1  UNL1        0.3078
      9 O          63.8193   87.0410   13.3872 O.2     1  UNL1       -0.2523
     10 N          63.3405   86.1462   15.7789 N.am    1  UNL1       -0.2573
     11 C          63.1437   85.1017   16.8374 C.3     1  UNL1        0.0954
     12 C          62.8568   85.8023   18.1323 C.3     1  UNL1        0.0238
     13 C          62.8761   87.2798   17.8742 C.3     1  UNL1        0.0310
     14 C          63.1751   87.4924   16.4198 C.3     1  UNL1        0.1530
     15 C          63.6150   83.3306   14.7805 C.3     1  UNL1        0.1413
     16 C          60.8527   80.6835   14.1266 C.ar    1  UNL1        0.0875
     17 N          61.3012   81.9946   14.7010 N.ar    1  UNL1       -0.2453
     18 C          62.7596   82.1612   14.3923 C.ar    1  UNL1        0.0858
     19 C          63.2124   80.9532   13.6271 C.ar    1  UNL1        0.0530
     20 S          62.0339   80.0398   13.4629 S.2     1  UNL1       -0.0705
     21 C          58.2780   81.0098   14.0068 C.3     1  UNL1        0.0069
     22 C          59.4663   80.1158   14.2026 C.3     1  UNL1        0.0465
     23 C          59.2684   78.6540   14.4744 C.3     1  UNL1        0.0069
     24 C          64.3058   90.7583   13.1093 C.3     1  UNL1        0.0216
     25 C          64.4385   92.0791   12.4110 C.3     1  UNL1        0.0217
     26 C          64.5709   92.1281   10.9176 C.3     1  UNL1        0.0792
     27 N          63.3646   91.9210   10.0505 N.am    1  UNL1       -0.2720
     28 C          62.6594   90.5970   10.0503 C.2     1  UNL1        0.4019
     29 O          63.1606   89.4802   10.9172 O.2     1  UNL1       -0.2264
     30 H          63.0357   92.6540    9.4815 H       1  UNL1        0.1527
     31 O          61.4531   90.3900    9.1832 O.3     1  UNL1       -0.4291
     32 C          60.3770   89.4364    9.6105 C.3     1  UNL1        0.2447
     33 C          60.1523   88.1667    8.8440 C.ar    1  UNL1        0.0714
     34 C          59.0993   87.9420    7.7997 C.ar    1  UNL1        0.1053
     35 N          59.2373   86.5353    7.2975 N.ar    1  UNL1       -0.2350
     36 C          60.3756   85.8907    8.0314 C.ar    1  UNL1        0.1343
     37 S          60.9411   86.8990    8.9872 S.2     1  UNL1       -0.0652
     38 C          65.9097   92.3841   10.2914 C.3     1  UNL1        0.0460
     39 C          66.3626   93.7916   10.0385 C.ar    1  UNL1       -0.0205
     40 C          67.1751   94.1102    8.8186 C.ar    1  UNL1       -0.0042
     41 C          67.6280   95.5177    8.5658 C.ar    1  UNL1       -0.0003
     42 C          67.2684   96.6064    9.5329 C.ar    1  UNL1       -0.0000
     43 C          66.4559   96.2878   10.7528 C.ar    1  UNL1       -0.0003
     44 C          66.0030   94.8803   11.0056 C.ar    1  UNL1       -0.0042
     45 C          65.2795   91.8068   15.2778 C.3     1  UNL1        0.0459
     46 C          66.7289   92.1710   15.1486 C.ar    1  UNL1       -0.0205
     47 C          67.3626   93.0926   16.1482 C.ar    1  UNL1       -0.0042
     48 C          68.8120   93.4568   16.0190 C.ar    1  UNL1       -0.0003
     49 C          69.6276   92.8994   14.8902 C.ar    1  UNL1       -0.0000
     50 C          68.9939   91.9778   13.8907 C.ar    1  UNL1       -0.0003
     51 C          67.5445   91.6136   14.0199 C.ar    1  UNL1       -0.0042
@<TRIPOS>BOND
     1    21    22    1
     2    22    23    1
     3    22    16    1
     4    16    17   ar
     5    17    18   ar
     6    18    15    1
     7    15     6    1
     8     6     7    1
     9     6     8   am
    10     8     9    2
    11     8    10   am
    12    10    11    1
    13    11    12    1
    14    12    13    1
    15    13    14    1
    16    14     2    1
    17     2     3    2
    18     2     4   am
    19     4     1    1
    20     1    24    1
    21    24    25    1
    22    26    25    1
    23    26    38    1
    24    38    39    1
    25    39    40   ar
    26    40    41   ar
    27    41    42   ar
    28    42    43   ar
    29    43    44   ar
    30    26    27    1
    31    27    28   am
    32    28    29    2
    33    28    31    1
    34    31    32    1
    35    32    33    1
    36    33    34   ar
    37    34    35   ar
    38    35    36   ar
    39    36    37   ar
    40     1    45    1
    41    45    46    1
    42    46    47   ar
    43    47    48   ar
    44    48    49   ar
    45    49    50   ar
    46    50    51   ar
    47    18    19   ar
    48    19    20   ar
    49    20    16   ar
    50    14    10    1
    51    44    39   ar
    52    37    33   ar
    53    51    46   ar
    54     4     5    1
    55    27    30    1
@<TRIPOS>MOLECULE
*****
 51 55 0 0 0
SMALL
GASTEIGER

@<TRIPOS>ATOM
      1 C          64.4020   90.8299   14.7944 C.3     1  UNL1        0.0760
      2 C          63.1577   88.8302   15.8914 C.2     1  UNL1        0.2406
      3 O          61.8931   89.6361   15.9260 O.2     1  UNL1       -0.2733
      4 N          64.4122   89.4271   15.3256 N.am    1  UNL1       -0.3043
      5 H          65.2422   88.8982   15.3030 H       1  UNL1        0.1494
      6 N          63.8045   84.7907   13.4624 N.am    1  UNL1       -0.2566
      7 C          64.0395   84.7276   11.9824 C.3     1  UNL1        0.1168
      8 C          63.6115   86.1173   14.1354 C.2     1  UNL1        0.3078
      9 O          63.6536   87.3809   13.3280 O.2     1  UNL1       -0.2523
     10 N          63.3765   86.1805   15.6154 N.am    1  UNL1       -0.2573
     11 C          63.3089   85.0077   16.5483 C.3     1  UNL1        0.0954
     12 C          63.0584   85.5299   17.9320 C.3     1  UNL1        0.0238
     13 C          62.9713   87.0254   17.8543 C.3     1  UNL1        0.0310
     14 C          63.1679   87.4275   16.4227 C.3     1  UNL1        0.1530
     15 C          63.7624   83.5271   14.2698 C.3     1  UNL1        0.1413
     16 C          62.6988   80.4232   12.1964 C.ar    1  UNL1        0.0875
     17 N          63.5550   81.6397   12.3885 N.ar    1  UNL1       -0.2453
     18 C          63.1618   82.2832   13.6851 C.ar    1  UNL1        0.0858
     19 C          62.0627   81.4644   14.2944 C.ar    1  UNL1        0.0530
     20 S          61.7764   80.3148   13.3743 S.2     1  UNL1       -0.0705
     21 C          62.9375   80.0155    9.6416 C.3     1  UNL1        0.0069
     22 C          62.7550   79.4804   11.0310 C.3     1  UNL1        0.0465
     23 C          62.6288   78.0026   11.2549 C.3     1  UNL1        0.0069
     24 C          63.6698   91.1453   13.5238 C.3     1  UNL1        0.0216
     25 C          64.2700   90.7736   12.2004 C.3     1  UNL1        0.0217
     26 C          63.9609   91.5904   10.9808 C.3     1  UNL1        0.0792
     27 N          63.0394   91.0481    9.9287 N.am    1  UNL1       -0.2720
     28 C          61.7630   90.3687   10.3276 C.2     1  UNL1        0.4019
     29 O          61.4080   90.2316   11.7785 O.2     1  UNL1       -0.2264
     30 H          63.2724   91.1381    8.9764 H       1  UNL1        0.1527
     31 O          60.8415   89.8264    9.2755 O.3     1  UNL1       -0.4291
     32 C          60.2200   88.4723    9.4485 C.3     1  UNL1        0.2447
     33 C          60.8623   87.2674    8.8275 C.ar    1  UNL1        0.0714
     34 C          62.2229   86.7268    9.1540 C.ar    1  UNL1        0.1053
     35 N          62.4584   85.5168    8.2993 N.ar    1  UNL1       -0.2350
     36 C          61.2433   85.3096    7.4446 C.ar    1  UNL1        0.1343
     37 S          60.2569   86.3915    7.7710 S.2     1  UNL1       -0.0652
     38 C          64.5733   92.9493   10.8132 C.3     1  UNL1        0.0460
     39 C          65.9784   93.0813   10.3049 C.ar    1  UNL1       -0.0205
     40 C          66.4360   94.3714    9.6914 C.ar    1  UNL1       -0.0042
     41 C          67.8410   94.5033    9.1830 C.ar    1  UNL1       -0.0003
     42 C          68.7885   93.3452    9.2882 C.ar    1  UNL1       -0.0000
     43 C          68.3309   92.0552    9.9017 C.ar    1  UNL1       -0.0003
     44 C          66.9259   91.9232   10.4100 C.ar    1  UNL1       -0.0042
     45 C          65.1239   91.9171   15.5339 C.3     1  UNL1        0.0459
     46 C          66.5698   92.1899   15.2425 C.ar    1  UNL1       -0.0205
     47 C          67.1972   91.6516   13.9907 C.ar    1  UNL1       -0.0042
     48 C          68.6431   91.9244   13.6994 C.ar    1  UNL1       -0.0003
     49 C          69.4617   92.7353   14.6598 C.ar    1  UNL1       -0.0000
     50 C          68.8344   93.2735   15.9115 C.ar    1  UNL1       -0.0003
     51 C          67.3884   93.0007   16.2029 C.ar    1  UNL1       -0.0042
@<TRIPOS>BOND
     1    21    22    1
     2    22    23    1
     3    22    16    1
     4    16    17   ar
     5    17    18   ar
     6    18    15    1
     7    15     6    1
     8     6     7    1
     9     6     8   am
    10     8     9    2
    11     8    10   am
    12    10    11    1
    13    11    12    1
    14    12    13    1
    15    13    14    1
    16    14     2    1
    17     2     3    2
    18     2     4   am
    19     4     1    1
    20     1    24    1
    21    24    25    1
    22    26    25    1
    23    26    38    1
    24    38    39    1
    25    39    40   ar
    26    40    41   ar
    27    41    42   ar
    28    42    43   ar
    29    43    44   ar
    30    26    27    1
    31    27    28   am
    32    28    29    2
    33    28    31    1
    34    31    32    1
    35    32    33    1
    36    33    34   ar
    37    34    35   ar
    38    35    36   ar
    39    36    37   ar
    40     1    45    1
    41    45    46    1
    42    46    47   ar
    43    47    48   ar
    44    48    49   ar
    45    49    50   ar
    46    50    51   ar
    47    18    19   ar
    48    19    20   ar
    49    20    16   ar
    50    14    10    1
    51    44    39   ar
    52    37    33   ar
    53    51    46   ar
    54     4     5    1
    55    27    30    1
@<TRIPOS>MOLECULE
*****
 51 55 0 0 0
SMALL
GASTEIGER

@<TRIPOS>ATOM
      1 C          63.1783   85.4006   12.0663 C.3     1  UNL1        0.0760
      2 C          62.7428   85.1770    9.5147 C.2     1  UNL1        0.2406
      3 O          64.1260   84.6281    9.3267 O.2     1  UNL1       -0.2733
      4 N          62.2689   85.5632   10.8846 N.am    1  UNL1       -0.3043
      5 H          61.3610   85.9235   11.0080 H       1  UNL1        0.1494
      6 N          60.0010   88.9109    8.4299 N.am    1  UNL1       -0.2566
      7 C          59.9133   90.1588    9.2574 C.3     1  UNL1        0.1168
      8 C          60.8975   87.7875    8.8593 C.2     1  UNL1        0.3078
      9 O          61.7065   87.9123   10.1163 O.2     1  UNL1       -0.2523
     10 N          60.9851   86.5396    8.0317 N.am    1  UNL1       -0.2573
     11 C          60.2400   86.2724    6.7576 C.3     1  UNL1        0.0954
     12 C          60.6276   84.9073    6.2714 C.3     1  UNL1        0.0238
     13 C          61.6123   84.3309    7.2451 C.3     1  UNL1        0.0310
     14 C          61.8333   85.3396    8.3330 C.3     1  UNL1        0.1530
     15 C          59.1920   88.7861    7.1729 C.3     1  UNL1        0.1413
     16 C          59.9049   91.4898    4.4809 C.ar    1  UNL1        0.0875
     17 N          60.3568   90.3495    5.3443 N.ar    1  UNL1       -0.2453
     18 C          59.1875   89.9016    6.1701 C.ar    1  UNL1        0.0858
     19 C          58.0128   90.7650    5.8170 C.ar    1  UNL1        0.0530
     20 S          58.4562   91.7466    4.7730 S.2     1  UNL1       -0.0705
     21 C          62.1977   91.8788    3.3226 C.3     1  UNL1        0.0069
     22 C          60.7528   92.2413    3.4979 C.3     1  UNL1        0.0465
     23 C          60.1558   93.3554    2.6902 C.3     1  UNL1        0.0069
     24 C          63.3232   86.5147   13.0602 C.3     1  UNL1        0.0216
     25 C          63.1754   87.9398   12.6161 C.3     1  UNL1        0.0217
     26 C          63.9176   89.0292   13.3319 C.3     1  UNL1        0.0792
     27 N          63.9271   90.4217   12.7742 N.am    1  UNL1       -0.2720
     28 C          65.0105   91.3807   13.1701 C.2     1  UNL1        0.4019
     29 O          66.0843   90.9472   14.1236 O.2     1  UNL1       -0.2264
     30 H          63.2224   90.7062   12.1484 H       1  UNL1        0.1527
     31 O          65.0201   92.7732   12.6125 O.3     1  UNL1       -0.4291
     32 C          65.0751   92.9865   11.1288 C.3     1  UNL1        0.2447
     33 C          66.3825   93.3010   10.4642 C.ar    1  UNL1        0.0714
     34 C          67.6003   92.4252   10.4555 C.ar    1  UNL1        0.1053
     35 N          68.6722   93.1294    9.6776 N.ar    1  UNL1       -0.2350
     36 C          68.1169   94.4404    9.2054 C.ar    1  UNL1        0.1343
     37 S          66.7018   94.5465    9.6916 S.2     1  UNL1       -0.0652
     38 C          64.6501   88.7262   14.6052 C.3     1  UNL1        0.0460
     39 C          63.9998   87.8838   15.6624 C.ar    1  UNL1       -0.0205
     40 C          64.1920   86.3962   15.6594 C.ar    1  UNL1       -0.0042
     41 C          63.5417   85.5539   16.7166 C.ar    1  UNL1       -0.0003
     42 C          62.6993   86.1992   17.7767 C.ar    1  UNL1       -0.0000
     43 C          62.5071   87.6868   17.7797 C.ar    1  UNL1       -0.0003
     44 C          63.1574   88.5291   16.7225 C.ar    1  UNL1       -0.0042
     45 C          63.9430   84.1238   12.2541 C.3     1  UNL1        0.0459
     46 C          63.2336   82.8861   12.7176 C.ar    1  UNL1       -0.0205
     47 C          62.3971   82.9226   13.9623 C.ar    1  UNL1       -0.0042
     48 C          61.6878   81.6849   14.4258 C.ar    1  UNL1       -0.0003
     49 C          61.8149   80.4106   13.6446 C.ar    1  UNL1       -0.0000
     50 C          62.6513   80.3741   12.4000 C.ar    1  UNL1       -0.0003
     51 C          63.3606   81.6118   11.9365 C.ar    1  UNL1       -0.0042
@<TRIPOS>BOND
     1    21    22    1
     2    22    23    1
     3    22    16    1
     4    16    17   ar
     5    17    18   ar
     6    18    15    1
     7    15     6    1
     8     6     7    1
     9     6     8   am
    10     8     9    2
    11     8    10   am
    12    10    11    1
    13    11    12    1
    14    12    13    1
    15    13    14    1
    16    14     2    1
    17     2     3    2
    18     2     4   am
    19     4     1    1
    20     1    24    1
    21    24    25    1
    22    26    25    1
    23    26    38    1
    24    38    39    1
    25    39    40   ar
    26    40    41   ar
    27    41    42   ar
    28    42    43   ar
    29    43    44   ar
    30    26    27    1
    31    27    28   am
    32    28    29    2
    33    28    31    1
    34    31    32    1
    35    32    33    1
    36    33    34   ar
    37    34    35   ar
    38    35    36   ar
    39    36    37   ar
    40     1    45    1
    41    45    46    1
    42    46    47   ar
    43    47    48   ar
    44    48    49   ar
    45    49    50   ar
    46    50    51   ar
    47    18    19   ar
    48    19    20   ar
    49    20    16   ar
    50    14    10    1
    51    44    39   ar
    52    37    33   ar
    53    51    46   ar
    54     4     5    1
    55    27    30    1
@<TRIPOS>MOLECULE
*****
 51 55 0 0 0
SMALL
GASTEIGER

@<TRIPOS>ATOM
      1 C          64.0710   91.7536   11.2891 C.3     1  UNL1        0.0760
      2 C          62.0119   90.3320   10.5897 C.2     1  UNL1        0.2406
      3 O          61.0973   91.3878   11.1362 O.2     1  UNL1       -0.2733
      4 N          63.4988   90.5149   10.6661 N.am    1  UNL1       -0.3043
      5 H          64.0991   89.8219   10.3074 H       1  UNL1        0.1494
      6 N          62.7382   85.8102   11.8786 N.am    1  UNL1       -0.2566
      7 C          63.6143   85.3917   13.0219 C.3     1  UNL1        0.1168
      8 C          62.5745   87.2651   11.5525 C.2     1  UNL1        0.3078
      9 O          63.2871   88.3016   12.3698 O.2     1  UNL1       -0.2523
     10 N          61.6983   87.6835   10.4093 N.am    1  UNL1       -0.2573
     11 C          60.9268   86.7658    9.5078 C.3     1  UNL1        0.0954
     12 C          60.1914   87.6083    8.5081 C.3     1  UNL1        0.0238
     13 C          60.5084   89.0467    8.7917 C.3     1  UNL1        0.0310
     14 C          61.4397   89.0933    9.9666 C.3     1  UNL1        0.1530
     15 C          62.0255   84.7736   11.0613 C.3     1  UNL1        0.1413
     16 C          62.8609   80.9970   11.3836 C.ar    1  UNL1        0.0875
     17 N          62.0310   82.1911   11.7510 N.ar    1  UNL1       -0.2453
     18 C          62.5598   83.3736   10.9945 C.ar    1  UNL1        0.0858
     19 C          63.7165   82.9102   10.1597 C.ar    1  UNL1        0.0530
     20 S          63.9028   81.4414   10.4000 S.2     1  UNL1       -0.0705
     21 C          62.4628   79.3755   13.3741 C.3     1  UNL1        0.0069
     22 C          62.6808   79.6031   11.9076 C.3     1  UNL1        0.0465
     23 C          62.7188   78.4367   10.9652 C.3     1  UNL1        0.0069
     24 C          64.2670   91.8242   12.7745 C.3     1  UNL1        0.0216
     25 C          63.5529   90.8574   13.6720 C.3     1  UNL1        0.0217
     26 C          64.0059   90.6759   15.0905 C.3     1  UNL1        0.0792
     27 N          65.3372   91.2116   15.5270 N.am    1  UNL1       -0.2720
     28 C          65.4045   92.3581   16.4920 C.2     1  UNL1        0.4019
     29 O          64.1405   92.9688   17.0204 O.2     1  UNL1       -0.2264
     30 H          66.1669   90.8108   15.1801 H       1  UNL1        0.1527
     31 O          66.7359   92.8937   16.9285 O.3     1  UNL1       -0.4291
     32 C          67.5970   93.6453   15.9572 C.3     1  UNL1        0.2447
     33 C          68.3379   92.9052   14.8832 C.ar    1  UNL1        0.0714
     34 C          69.8250   92.7271   14.8005 C.ar    1  UNL1        0.1053
     35 N          70.1280   91.9251   13.5696 N.ar    1  UNL1       -0.2350
     36 C          68.8282   91.6076   12.8916 C.ar    1  UNL1        0.1343
     37 S          67.7219   92.2134   13.7035 S.2     1  UNL1       -0.0652
     38 C          63.1275   89.9588   16.0723 C.3     1  UNL1        0.0460
     39 C          63.3064   88.4875   16.3035 C.ar    1  UNL1       -0.0205
     40 C          62.6028   87.8168   17.4459 C.ar    1  UNL1       -0.0042
     41 C          62.7817   86.3456   17.6771 C.ar    1  UNL1       -0.0003
     42 C          63.6643   85.5451   16.7659 C.ar    1  UNL1       -0.0000
     43 C          64.3679   86.2158   15.6235 C.ar    1  UNL1       -0.0003
     44 C          64.1890   87.6870   15.3923 C.ar    1  UNL1       -0.0042
     45 C          64.4472   92.9219   10.4266 C.3     1  UNL1        0.0459
     46 C          65.8807   93.1395   10.0423 C.ar    1  UNL1       -0.0205
     47 C          66.8330   91.9810   10.0112 C.ar    1  UNL1       -0.0042
     48 C          68.2665   92.1987    9.6269 C.ar    1  UNL1       -0.0003
     49 C          68.7477   93.5749    9.2737 C.ar    1  UNL1       -0.0000
     50 C          67.7953   94.7333    9.3049 C.ar    1  UNL1       -0.0003
     51 C          66.3618   94.5156    9.6892 C.ar    1  UNL1       -0.0042
@<TRIPOS>BOND
     1    21    22    1
     2    22    23    1
     3    22    16    1
     4    16    17   ar
     5    17    18   ar
     6    18    15    1
     7    15     6    1
     8     6     7    1
     9     6     8   am
    10     8     9    2
    11     8    10   am
    12    10    11    1
    13    11    12    1
    14    12    13    1
    15    13    14    1
    16    14     2    1
    17     2     3    2
    18     2     4   am
    19     4     1    1
    20     1    24    1
    21    24    25    1
    22    26    25    1
    23    26    38    1
    24    38    39    1
    25    39    40   ar
    26    40    41   ar
    27    41    42   ar
    28    42    43   ar
    29    43    44   ar
    30    26    27    1
    31    27    28   am
    32    28    29    2
    33    28    31    1
    34    31    32    1
    35    32    33    1
    36    33    34   ar
    37    34    35   ar
    38    35    36   ar
    39    36    37   ar
    40     1    45    1
    41    45    46    1
    42    46    47   ar
    43    47    48   ar
    44    48    49   ar
    45    49    50   ar
    46    50    51   ar
    47    18    19   ar
    48    19    20   ar
    49    20    16   ar
    50    14    10    1
    51    44    39   ar
    52    37    33   ar
    53    51    46   ar
    54     4     5    1
    55    27    30    1
@<TRIPOS>MOLECULE
*****
 51 55 0 0 0
SMALL
GASTEIGER

@<TRIPOS>ATOM
      1 C          63.3653   85.1613   11.9820 C.3     1  UNL1        0.0760
      2 C          62.8481   85.2481    9.4374 C.2     1  UNL1        0.2406
      3 O          64.3014   85.0333    9.1346 O.2     1  UNL1       -0.2733
      4 N          62.3800   85.3121   10.8611 N.am    1  UNL1       -0.3043
      5 H          61.4261   85.4531   11.0598 H       1  UNL1        0.1494
      6 N          60.0020   88.9506    8.5272 N.am    1  UNL1       -0.2566
      7 C          59.9544   90.1989    9.3573 C.3     1  UNL1        0.1168
      8 C          60.9364   87.8376    8.8992 C.2     1  UNL1        0.3078
      9 O          61.8233   87.9733   10.1014 O.2     1  UNL1       -0.2523
     10 N          60.9840   86.5893    8.0691 N.am    1  UNL1       -0.2573
     11 C          60.1614   86.3118    6.8458 C.3     1  UNL1        0.0954
     12 C          60.5316   84.9501    6.3372 C.3     1  UNL1        0.0238
     13 C          61.5831   84.3859    7.2461 C.3     1  UNL1        0.0310
     14 C          61.8627   85.3989    8.3164 C.3     1  UNL1        0.1530
     15 C          59.1152   88.8149    7.3250 C.3     1  UNL1        0.1413
     16 C          59.8103   91.4578    4.5687 C.ar    1  UNL1        0.0875
     17 N          60.2819   90.3793    5.4985 N.ar    1  UNL1       -0.2453
     18 C          59.0985   89.8910    6.2801 C.ar    1  UNL1        0.0858
     19 C          57.8955   90.6676    5.8335 C.ar    1  UNL1        0.0530
     20 S          58.3353   91.6360    4.7757 S.2     1  UNL1       -0.0705
     21 C          60.0801   93.3714    2.8322 C.3     1  UNL1        0.0069
     22 C          60.6637   92.2236    3.6017 C.3     1  UNL1        0.0465
     23 C          62.1008   91.8418    3.4041 C.3     1  UNL1        0.0069
     24 C          63.4562   86.2134   13.0472 C.3     1  UNL1        0.0216
     25 C          63.5313   87.6622   12.6660 C.3     1  UNL1        0.0217
     26 C          63.6684   88.7114   13.7292 C.3     1  UNL1        0.0792
     27 N          63.9000   88.3083   15.1553 N.am    1  UNL1       -0.2720
     28 C          62.9581   88.7699   16.2276 C.2     1  UNL1        0.4019
     29 O          61.7846   89.6346   15.8738 O.2     1  UNL1       -0.2264
     30 H          64.6702   87.7407   15.3875 H       1  UNL1        0.1527
     31 O          63.1897   88.3667   17.6537 O.3     1  UNL1       -0.4291
     32 C          62.8610   86.9736   18.1021 C.3     1  UNL1        0.2447
     33 C          62.7596   85.8660   17.0956 C.ar    1  UNL1        0.0714
     34 C          61.5042   85.4030   16.4176 C.ar    1  UNL1        0.1053
     35 N          61.8645   84.2779   15.4933 N.ar    1  UNL1       -0.2350
     36 C          63.3425   84.0454   15.6001 C.ar    1  UNL1        0.1343
     37 S          63.8957   85.0270   16.5904 S.2     1  UNL1       -0.0652
     38 C          63.5739   90.1638   13.3662 C.3     1  UNL1        0.0460
     39 C          64.7900   91.0380   13.4483 C.ar    1  UNL1       -0.0205
     40 C          65.0635   92.0455   12.3712 C.ar    1  UNL1       -0.0042
     41 C          66.2796   92.9197   12.4533 C.ar    1  UNL1       -0.0003
     42 C          67.2223   92.7864   13.6124 C.ar    1  UNL1       -0.0000
     43 C          66.9488   91.7790   14.6895 C.ar    1  UNL1       -0.0003
     44 C          65.7327   90.9047   14.6074 C.ar    1  UNL1       -0.0042
     45 C          64.2597   83.9584   12.0376 C.3     1  UNL1        0.0459
     46 C          63.6804   82.5848   11.8712 C.ar    1  UNL1       -0.0205
     47 C          63.0794   81.8765   13.0490 C.ar    1  UNL1       -0.0042
     48 C          62.5001   80.5029   12.8826 C.ar    1  UNL1       -0.0003
     49 C          62.5218   79.8376   11.5383 C.ar    1  UNL1       -0.0000
     50 C          63.1227   80.5459   10.3606 C.ar    1  UNL1       -0.0003
     51 C          63.7020   81.9195   10.5270 C.ar    1  UNL1       -0.0042
@<TRIPOS>BOND
     1    21    22    1
     2    22    23    1
     3    22    16    1
     4    16    17   ar
     5    17    18   ar
     6    18    15    1
     7    15     6    1
     8     6     7    1
     9     6     8   am
    10     8     9    2
    11     8    10   am
    12    10    11    1
    13    11    12    1
    14    12    13    1
    15    13    14    1
    16    14     2    1
    17     2     3    2
    18     2     4   am
    19     4     1    1
    20     1    24    1
    21    24    25    1
    22    26    25    1
    23    26    38    1
    24    38    39    1
    25    39    40   ar
    26    40    41   ar
    27    41    42   ar
    28    42    43   ar
    29    43    44   ar
    30    26    27    1
    31    27    28   am
    32    28    29    2
    33    28    31    1
    34    31    32    1
    35    32    33    1
    36    33    34   ar
    37    34    35   ar
    38    35    36   ar
    39    36    37   ar
    40     1    45    1
    41    45    46    1
    42    46    47   ar
    43    47    48   ar
    44    48    49   ar
    45    49    50   ar
    46    50    51   ar
    47    18    19   ar
    48    19    20   ar
    49    20    16   ar
    50    14    10    1
    51    44    39   ar
    52    37    33   ar
    53    51    46   ar
    54     4     5    1
    55    27    30    1
@<TRIPOS>MOLECULE
*****
 51 55 0 0 0
SMALL
GASTEIGER

@<TRIPOS>ATOM
      1 C          62.0535   86.6498   11.4233 C.3     1  UNL1        0.0760
      2 C          62.2321   89.2414   11.3833 C.2     1  UNL1        0.2406
      3 O          60.7991   89.3469   11.8137 O.2     1  UNL1       -0.2733
      4 N          62.8594   87.8928   11.1881 N.am    1  UNL1       -0.3043
      5 H          63.7999   87.8236   10.9056 H       1  UNL1        0.1494
      6 N          64.8919   91.6360   14.5182 N.am    1  UNL1       -0.2566
      7 C          65.0570   91.2418   15.9559 C.3     1  UNL1        0.1168
      8 C          64.0291   90.8123   13.6088 C.2     1  UNL1        0.3078
      9 O          63.3313   89.5941   14.1374 O.2     1  UNL1       -0.2523
     10 N          63.8640   91.2065   12.1711 N.am    1  UNL1       -0.2573
     11 C          64.4959   92.3920   11.5037 C.3     1  UNL1        0.0954
     12 C          64.0605   92.4027   10.0683 C.3     1  UNL1        0.0238
     13 C          63.1595   91.2238    9.8485 C.3     1  UNL1        0.0310
     14 C          63.0380   90.4845   11.1480 C.3     1  UNL1        0.1530
     15 C          65.5897   92.8542   13.9896 C.3     1  UNL1        0.1413
     16 C          67.8756   92.9808   10.8554 C.ar    1  UNL1        0.0875
     17 N          66.6437   93.4085   11.5966 N.ar    1  UNL1       -0.2453
     18 C          66.6391   92.7155   12.9269 C.ar    1  UNL1        0.0858
     19 C          67.8682   91.8596   13.0079 C.ar    1  UNL1        0.0530
     20 S          68.6325   92.0234   11.7277 S.2     1  UNL1       -0.0705
     21 C          69.0172   92.4942    8.5728 C.3     1  UNL1        0.0069
     22 C          68.2798   93.4313    9.4829 C.3     1  UNL1        0.0465
     23 C          67.9467   94.8188    9.0205 C.3     1  UNL1        0.0069
     24 C          62.4043   85.7317   12.5564 C.3     1  UNL1        0.0216
     25 C          63.5018   84.7226   12.3918 C.3     1  UNL1        0.0217
     26 C          64.1949   84.1645   13.5994 C.3     1  UNL1        0.0792
     27 N          64.2143   82.6833   13.8353 N.am    1  UNL1       -0.2720
     28 C          62.9588   81.9730   14.2469 C.2     1  UNL1        0.4019
     29 O          61.6841   82.7438   14.4226 O.2     1  UNL1       -0.2264
     30 H          65.0509   82.1774   13.7201 H       1  UNL1        0.1527
     31 O          62.9782   80.4918   14.4829 O.3     1  UNL1       -0.4291
     32 C          62.3496   79.5651   13.4849 C.3     1  UNL1        0.2447
     33 C          62.6203   79.7445   12.0205 C.ar    1  UNL1        0.0714
     34 C          62.9291   81.0416   11.3334 C.ar    1  UNL1        0.1053
     35 N          63.1295   80.7572    9.8743 N.ar    1  UNL1       -0.2350
     36 C          62.9445   79.2842    9.6596 C.ar    1  UNL1        0.1343
     37 S          62.6298   78.6584   10.9860 S.2     1  UNL1       -0.0652
     38 C          64.8686   85.0876   14.5710 C.3     1  UNL1        0.0460
     39 C          64.0545   85.8262   15.5917 C.ar    1  UNL1       -0.0205
     40 C          64.1478   87.3202   15.6871 C.ar    1  UNL1       -0.0042
     41 C          63.3337   88.0588   16.7078 C.ar    1  UNL1       -0.0003
     42 C          62.4264   87.3033   17.6330 C.ar    1  UNL1       -0.0000
     43 C          62.3332   85.8092   17.5375 C.ar    1  UNL1       -0.0003
     44 C          63.1472   85.0707   16.5169 C.ar    1  UNL1       -0.0042
     45 C          60.8967   86.3248   10.5253 C.3     1  UNL1        0.0459
     46 C          61.1452   85.8405    9.1276 C.ar    1  UNL1       -0.0205
     47 C          60.0558   85.9246    8.0999 C.ar    1  UNL1       -0.0042
     48 C          60.3043   85.4403    6.7021 C.ar    1  UNL1       -0.0003
     49 C          61.6423   84.8720    6.3321 C.ar    1  UNL1       -0.0000
     50 C          62.7317   84.7880    7.3597 C.ar    1  UNL1       -0.0003
     51 C          62.4831   85.2722    8.7575 C.ar    1  UNL1       -0.0042
@<TRIPOS>BOND
     1    21    22    1
     2    22    23    1
     3    22    16    1
     4    16    17   ar
     5    17    18   ar
     6    18    15    1
     7    15     6    1
     8     6     7    1
     9     6     8   am
    10     8     9    2
    11     8    10   am
    12    10    11    1
    13    11    12    1
    14    12    13    1
    15    13    14    1
    16    14     2    1
    17     2     3    2
    18     2     4   am
    19     4     1    1
    20     1    24    1
    21    24    25    1
    22    26    25    1
    23    26    38    1
    24    38    39    1
    25    39    40   ar
    26    40    41   ar
    27    41    42   ar
    28    42    43   ar
    29    43    44   ar
    30    26    27    1
    31    27    28   am
    32    28    29    2
    33    28    31    1
    34    31    32    1
    35    32    33    1
    36    33    34   ar
    37    34    35   ar
    38    35    36   ar
    39    36    37   ar
    40     1    45    1
    41    45    46    1
    42    46    47   ar
    43    47    48   ar
    44    48    49   ar
    45    49    50   ar
    46    50    51   ar
    47    18    19   ar
    48    19    20   ar
    49    20    16   ar
    50    14    10    1
    51    44    39   ar
    52    37    33   ar
    53    51    46   ar
    54     4     5    1
    55    27    30    1
@<TRIPOS>MOLECULE
*****
 51 55 0 0 0
SMALL
GASTEIGER

@<TRIPOS>ATOM
      1 C          61.5993   86.7663   10.4437 C.3     1  UNL1        0.0760
      2 C          62.0621   89.2393   11.0918 C.2     1  UNL1        0.2406
      3 O          60.8481   89.2357   11.9727 O.2     1  UNL1       -0.2733
      4 N          62.4377   88.0046   10.3273 N.am    1  UNL1       -0.3043
      5 H          63.2346   88.0070    9.7491 H       1  UNL1        0.1494
      6 N          64.7299   91.2886   14.4562 N.am    1  UNL1       -0.2566
      7 C          64.8639   90.7681   15.8566 C.3     1  UNL1        0.1168
      8 C          63.8618   90.5678   13.4679 C.2     1  UNL1        0.3078
      9 O          63.1275   89.3263   13.8801 O.2     1  UNL1       -0.2523
     10 N          63.7278   91.0883   12.0676 N.am    1  UNL1       -0.2573
     11 C          64.3975   92.3108   11.5135 C.3     1  UNL1        0.0954
     12 C          63.9841   92.4557   10.0788 C.3     1  UNL1        0.0238
     13 C          63.0590   91.3228    9.7463 C.3     1  UNL1        0.0310
     14 C          62.9005   90.4776   10.9753 C.3     1  UNL1        0.1530
     15 C          65.4641   92.5300   14.0440 C.3     1  UNL1        0.1413
     16 C          67.9069   92.7646   11.0369 C.ar    1  UNL1        0.0875
     17 N          66.6122   93.1230   11.7041 N.ar    1  UNL1       -0.2453
     18 C          66.5770   92.4454   13.0418 C.ar    1  UNL1        0.0858
     19 C          67.8499   91.6682   13.2014 C.ar    1  UNL1        0.0530
     20 S          68.6720   91.8654   11.9624 S.2     1  UNL1       -0.0705
     21 C          67.9700   94.5857    9.1850 C.3     1  UNL1        0.0069
     22 C          68.3576   93.2246    9.6822 C.3     1  UNL1        0.0465
     23 C          69.1960   92.3236    8.8247 C.3     1  UNL1        0.0069
     24 C          61.7032   85.9023   11.6655 C.3     1  UNL1        0.0216
     25 C          61.9112   84.4237   11.5229 C.3     1  UNL1        0.0217
     26 C          63.2961   83.8512   11.5892 C.3     1  UNL1        0.0792
     27 N          64.2586   84.3356   12.6327 N.am    1  UNL1       -0.2720
     28 C          64.1572   83.8272   14.0404 C.2     1  UNL1        0.4019
     29 O          63.0933   82.8345   14.4044 O.2     1  UNL1       -0.2264
     30 H          64.9569   84.9871   12.3938 H       1  UNL1        0.1527
     31 O          65.1197   84.3116   15.0839 O.3     1  UNL1       -0.4291
     32 C          64.9919   85.7007   15.6350 C.3     1  UNL1        0.2447
     33 C          63.7131   86.1336   16.2886 C.ar    1  UNL1        0.0714
     34 C          62.5469   85.2489   16.6163 C.ar    1  UNL1        0.1053
     35 N          61.4889   86.0957   17.2594 N.ar    1  UNL1       -0.2350
     36 C          62.0011   87.5038   17.3291 C.ar    1  UNL1        0.1343
     37 S          63.3757   87.5272   16.7291 S.2     1  UNL1       -0.0652
     38 C          63.7184   82.7944   10.6121 C.3     1  UNL1        0.0460
     39 C          63.3010   81.3690   10.8220 C.ar    1  UNL1       -0.0205
     40 C          62.9388   80.8881   12.1958 C.ar    1  UNL1       -0.0042
     41 C          62.5214   79.4627   12.4056 C.ar    1  UNL1       -0.0003
     42 C          62.4662   78.5183   11.2415 C.ar    1  UNL1       -0.0000
     43 C          62.8283   78.9992    9.8677 C.ar    1  UNL1       -0.0003
     44 C          63.2458   80.4246    9.6579 C.ar    1  UNL1       -0.0042
     45 C          60.6569   86.3919    9.3383 C.3     1  UNL1        0.0459
     46 C          61.1667   85.6550    8.1354 C.ar    1  UNL1       -0.0205
     47 C          62.6273   85.3349    8.0154 C.ar    1  UNL1       -0.0042
     48 C          63.1372   84.5980    6.8125 C.ar    1  UNL1       -0.0003
     49 C          62.1865   84.1812    5.7296 C.ar    1  UNL1       -0.0000
     50 C          60.7260   84.5013    5.8497 C.ar    1  UNL1       -0.0003
     51 C          60.2161   85.2382    7.0526 C.ar    1  UNL1       -0.0042
@<TRIPOS>BOND
     1    21    22    1
     2    22    23    1
     3    22    16    1
     4    16    17   ar
     5    17    18   ar
     6    18    15    1
     7    15     6    1
     8     6     7    1
     9     6     8   am
    10     8     9    2
    11     8    10   am
    12    10    11    1
    13    11    12    1
    14    12    13    1
    15    13    14    1
    16    14     2    1
    17     2     3    2
    18     2     4   am
    19     4     1    1
    20     1    24    1
    21    24    25    1
    22    26    25    1
    23    26    38    1
    24    38    39    1
    25    39    40   ar
    26    40    41   ar
    27    41    42   ar
    28    42    43   ar
    29    43    44   ar
    30    26    27    1
    31    27    28   am
    32    28    29    2
    33    28    31    1
    34    31    32    1
    35    32    33    1
    36    33    34   ar
    37    34    35   ar
    38    35    36   ar
    39    36    37   ar
    40     1    45    1
    41    45    46    1
    42    46    47   ar
    43    47    48   ar
    44    48    49   ar
    45    49    50   ar
    46    50    51   ar
    47    18    19   ar
    48    19    20   ar
    49    20    16   ar
    50    14    10    1
    51    44    39   ar
    52    37    33   ar
    53    51    46   ar
    54     4     5    1
    55    27    30    1
