@<TRIPOS>MOLECULE
*****
 42 45 0 0 0
SMALL
GASTEIGER

@<TRIPOS>ATOM
      1 N          61.9403   89.2860   12.3604 N.3     1  UNL1       -0.2947
      2 H          61.0033   89.4562   11.9951 H       1  UNL1        0.1233
      3 C          62.6497   88.4321   11.3518 C.3     1  UNL1        0.0888
      4 C          61.9319   87.2868   10.7011 C.3     1  UNL1        0.0948
      5 N          61.5397   87.3715    9.2558 N.am    1  UNL1       -0.2706
      6 C          60.4867   88.3471    8.8203 C.2     1  UNL1        0.4020
      7 O          59.8260   89.2379    9.8302 O.2     1  UNL1       -0.2264
      8 H          61.9734   86.7868    8.5930 H       1  UNL1        0.1527
      9 O          60.0945   88.4317    7.3750 O.3     1  UNL1       -0.4274
     10 C          58.9127   89.2599    6.9658 C.3     1  UNL1        0.2621
     11 C          59.0699   90.3284    5.9249 C.ar    1  UNL1        0.1323
     12 N          60.3677   90.8249    5.3600 N.ar    1  UNL1       -0.2374
     13 C          60.0568   91.8914    4.3521 C.ar    1  UNL1        0.1062
     14 C          58.5668   92.0540    4.2940 C.ar    1  UNL1        0.0573
     15 S          57.9568   91.0880    5.2660 S.2     1  UNL1       -0.0666
     16 C          61.6064   86.0570   11.4958 C.3     1  UNL1        0.0474
     17 C          62.5545   84.8946   11.5011 C.ar    1  UNL1       -0.0205
     18 C          62.8941   84.2096   12.7916 C.ar    1  UNL1       -0.0042
     19 C          63.8422   83.0473   12.7968 C.ar    1  UNL1       -0.0003
     20 C          64.4508   82.5700   11.5116 C.ar    1  UNL1       -0.0000
     21 C          64.1112   83.2551   10.2211 C.ar    1  UNL1       -0.0003
     22 C          63.1631   84.4174   10.2158 C.ar    1  UNL1       -0.0042
     23 C          62.5055   90.6220   12.7422 C.3     1  UNL1        0.0888
     24 C          63.8358   90.7046   13.4303 C.3     1  UNL1        0.0948
     25 O          65.5982   92.9436   14.3687 O.2     1  UNL1       -0.2264
     26 C          65.9440   92.1906   13.1183 C.2     1  UNL1        0.4020
     27 N          65.0628   91.0711   12.6491 N.am    1  UNL1       -0.2706
     28 H          65.2897   90.5770   11.8284 H       1  UNL1        0.1527
     29 O          67.1709   92.5572   12.3371 O.3     1  UNL1       -0.4291
     30 C          67.0856   92.7459   10.8515 C.3     1  UNL1        0.2447
     31 C          67.0225   94.1287   10.2736 C.ar    1  UNL1        0.0714
     32 C          66.3515   95.3158   10.8986 C.ar    1  UNL1        0.1053
     33 N          66.5338   96.4879    9.9804 N.ar    1  UNL1       -0.2350
     34 C          67.3174   96.0252    8.7880 C.ar    1  UNL1        0.1343
     35 S          67.6194   94.5672    8.9692 S.2     1  UNL1       -0.0652
     36 C          63.9392   90.4207   14.8995 C.3     1  UNL1        0.0474
     37 C          63.8102   89.0134   15.4024 C.ar    1  UNL1       -0.0205
     38 C          63.0852   88.7393   16.6866 C.ar    1  UNL1       -0.0042
     39 C          62.9562   87.3320   17.1895 C.ar    1  UNL1       -0.0003
     40 C          63.5521   86.1988   16.4081 C.ar    1  UNL1       -0.0000
     41 C          64.2771   86.4729   15.1239 C.ar    1  UNL1       -0.0003
     42 C          64.4061   87.8802   14.6210 C.ar    1  UNL1       -0.0042
@<TRIPOS>BOND
     1    25    26    2
     2    26    27   am
     3    27    24    1
     4    24    23    1
     5    23     1    1
     6     1     3    1
     7     4     3    1
     8     4    16    1
     9    16    17    1
    10    17    18   ar
    11    18    19   ar
    12    19    20   ar
    13    20    21   ar
    14    21    22   ar
    15     4     5    1
    16     5     6   am
    17     6     7    2
    18     6     9    1
    19     9    10    1
    20    10    11    1
    21    11    12   ar
    22    12    13   ar
    23    13    14   ar
    24    14    15   ar
    25    24    36    1
    26    36    37    1
    27    37    38   ar
    28    38    39   ar
    29    39    40   ar
    30    40    41   ar
    31    41    42   ar
    32    26    29    1
    33    29    30    1
    34    30    31    1
    35    31    32   ar
    36    32    33   ar
    37    33    34   ar
    38    34    35   ar
    39    22    17   ar
    40    15    11   ar
    41    42    37   ar
    42    35    31   ar
    43    27    28    1
    44     1     2    1
    45     5     8    1
@<TRIPOS>MOLECULE
*****
 42 45 0 0 0
SMALL
GASTEIGER

@<TRIPOS>ATOM
      1 N          61.5345   89.8491   12.7755 N.3     1  UNL1       -0.2947
      2 H          61.2395   90.6986   13.2569 H       1  UNL1        0.1233
      3 C          60.5713   89.6349   11.6458 C.3     1  UNL1        0.0888
      4 C          60.5473   88.3227   10.9192 C.3     1  UNL1        0.0948
      5 N          60.5471   87.0373   11.6922 N.am    1  UNL1       -0.2706
      6 C          61.8387   86.4662   12.1982 C.2     1  UNL1        0.4020
      7 O          63.1302   87.1807   11.9312 O.2     1  UNL1       -0.2264
      8 H          59.6994   86.5684   11.8675 H       1  UNL1        0.1527
      9 O          61.8385   85.1808   12.9713 O.3     1  UNL1       -0.4274
     10 C          62.9607   84.2009   12.7974 C.3     1  UNL1        0.2621
     11 C          62.7114   82.7338   12.9857 C.ar    1  UNL1        0.1323
     12 N          62.0092   82.1012   14.1505 N.ar    1  UNL1       -0.2374
     13 C          61.9842   80.6182   13.9271 C.ar    1  UNL1        0.1062
     14 C          62.6710   80.3341   12.6241 C.ar    1  UNL1        0.0573
     15 S          63.1204   81.6417   12.0424 S.2     1  UNL1       -0.0666
     16 C          60.5234   88.2961    9.4196 C.3     1  UNL1        0.0474
     17 C          61.0666   87.1084    8.6818 C.ar    1  UNL1       -0.0205
     18 C          60.1954   86.3641    7.7138 C.ar    1  UNL1       -0.0042
     19 C          60.7386   85.1764    6.9761 C.ar    1  UNL1       -0.0003
     20 C          62.1529   84.7330    7.2064 C.ar    1  UNL1       -0.0000
     21 C          63.0241   85.4772    8.1744 C.ar    1  UNL1       -0.0003
     22 C          62.4809   86.6649    8.9121 C.ar    1  UNL1       -0.0042
     23 C          63.0001   89.9979   12.4934 C.3     1  UNL1        0.0888
     24 C          63.8538   90.8465   13.3886 C.3     1  UNL1        0.0948
     25 O          66.7069   91.1739   14.2559 O.2     1  UNL1       -0.2264
     26 C          66.1207   92.1068   13.2380 C.2     1  UNL1        0.4020
     27 N          64.6942   91.9430   12.8044 N.am    1  UNL1       -0.2706
     28 H          64.3094   92.5553   12.1363 H       1  UNL1        0.1527
     29 O          66.9611   93.2034   12.6538 O.3     1  UNL1       -0.4291
     30 C          66.3054   94.4041   12.0388 C.3     1  UNL1        0.2447
     31 C          66.6779   94.8335   10.6507 C.ar    1  UNL1        0.0714
     32 C          66.5579   96.2217   10.0951 C.ar    1  UNL1        0.1053
     33 N          67.0417   96.1961    8.6755 N.ar    1  UNL1       -0.2350
     34 C          67.4607   94.7922    8.3537 C.ar    1  UNL1        0.1343
     35 S          67.2359   93.9501    9.5744 S.2     1  UNL1       -0.0652
     36 C          63.8672   90.5984   14.8678 C.3     1  UNL1        0.0474
     37 C          63.7767   89.1967   15.3941 C.ar    1  UNL1       -0.0205
     38 C          62.9956   88.9134   16.6429 C.ar    1  UNL1       -0.0042
     39 C          62.9052   87.5116   17.1692 C.ar    1  UNL1       -0.0003
     40 C          63.5959   86.3932   16.4467 C.ar    1  UNL1       -0.0000
     41 C          64.3769   86.6765   15.1979 C.ar    1  UNL1       -0.0003
     42 C          64.4674   88.0783   14.6716 C.ar    1  UNL1       -0.0042
@<TRIPOS>BOND
     1    25    26    2
     2    26    27   am
     3    27    24    1
     4    24    23    1
     5    23     1    1
     6     1     3    1
     7     4     3    1
     8     4    16    1
     9    16    17    1
    10    17    18   ar
    11    18    19   ar
    12    19    20   ar
    13    20    21   ar
    14    21    22   ar
    15     4     5    1
    16     5     6   am
    17     6     7    2
    18     6     9    1
    19     9    10    1
    20    10    11    1
    21    11    12   ar
    22    12    13   ar
    23    13    14   ar
    24    14    15   ar
    25    24    36    1
    26    36    37    1
    27    37    38   ar
    28    38    39   ar
    29    39    40   ar
    30    40    41   ar
    31    41    42   ar
    32    26    29    1
    33    29    30    1
    34    30    31    1
    35    31    32   ar
    36    32    33   ar
    37    33    34   ar
    38    34    35   ar
    39    22    17   ar
    40    15    11   ar
    41    42    37   ar
    42    35    31   ar
    43    27    28    1
    44     1     2    1
    45     5     8    1
@<TRIPOS>MOLECULE
*****
 42 45 0 0 0
SMALL
GASTEIGER

@<TRIPOS>ATOM
      1 N          61.6987   89.3720   12.3400 N.3     1  UNL1       -0.2947
      2 H          61.3186   88.4343   12.4690 H       1  UNL1        0.1233
      3 C          63.1767   89.2766   12.5773 C.3     1  UNL1        0.0888
      4 C          63.7651   89.7871   13.8591 C.3     1  UNL1        0.0948
      5 N          64.0396   88.8388   14.9885 N.am    1  UNL1       -0.2706
      6 C          63.0361   88.6758   16.0915 C.2     1  UNL1        0.4020
      7 O          61.7584   89.4610   16.0652 O.2     1  UNL1       -0.2264
      8 H          64.8782   88.3235   15.0058 H       1  UNL1        0.1527
      9 O          63.3106   87.7275   17.2209 O.3     1  UNL1       -0.4274
     10 C          62.8497   86.3028   17.1328 C.3     1  UNL1        0.2621
     11 C          63.3978   85.4018   16.0661 C.ar    1  UNL1        0.1323
     12 N          64.6409   85.6423   15.2618 N.ar    1  UNL1       -0.2374
     13 C          64.8105   84.4913   14.3150 C.ar    1  UNL1        0.1062
     14 C          63.6721   83.5394   14.5341 C.ar    1  UNL1        0.0573
     15 S          62.7990   84.1022   15.6163 S.2     1  UNL1       -0.0666
     16 C          64.0791   91.2459   14.0116 C.3     1  UNL1        0.0474
     17 C          65.4536   91.6777   14.4293 C.ar    1  UNL1       -0.0205
     18 C          66.6036   91.5447   13.4755 C.ar    1  UNL1       -0.0042
     19 C          67.9781   91.9764   13.8932 C.ar    1  UNL1       -0.0003
     20 C          68.2024   92.5412   15.2646 C.ar    1  UNL1       -0.0000
     21 C          67.0524   92.6742   16.2183 C.ar    1  UNL1       -0.0003
     22 C          65.6780   92.2424   15.8007 C.ar    1  UNL1       -0.0042
     23 C          61.1811   89.8717   11.0239 C.3     1  UNL1        0.0888
     24 C          60.6937   88.8988    9.9913 C.3     1  UNL1        0.0948
     25 O          58.6943   87.5065    8.2412 O.2     1  UNL1       -0.2264
     26 C          59.4994   88.6494    7.6976 C.2     1  UNL1        0.4020
     27 N          60.4991   89.3456    8.5727 N.am    1  UNL1       -0.2706
     28 H          61.0275   90.0957    8.2160 H       1  UNL1        0.1527
     29 O          59.3048   89.0961    6.2790 O.3     1  UNL1       -0.4291
     30 C          58.7476   90.4588    5.9915 C.3     1  UNL1        0.2447
     31 C          59.3685   91.3136    4.9266 C.ar    1  UNL1        0.0714
     32 C          58.6573   92.3365    4.0911 C.ar    1  UNL1        0.1053
     33 N          59.6588   92.9506    3.1584 N.ar    1  UNL1       -0.2350
     34 C          60.9888   92.3072    3.4174 C.ar    1  UNL1        0.1343
     35 S          60.8094   91.2955    4.5102 S.2     1  UNL1       -0.0652
     36 C          60.4010   87.4793   10.3775 C.3     1  UNL1        0.0474
     37 C          61.4346   86.4143   10.1594 C.ar    1  UNL1       -0.0205
     38 C          61.8763   85.5521   11.3045 C.ar    1  UNL1       -0.0042
     39 C          62.9099   84.4871   11.0864 C.ar    1  UNL1       -0.0003
     40 C          63.5017   84.2844    9.7231 C.ar    1  UNL1       -0.0000
     41 C          63.0600   85.1466    8.5780 C.ar    1  UNL1       -0.0003
     42 C          62.0264   86.2116    8.7961 C.ar    1  UNL1       -0.0042
@<TRIPOS>BOND
     1    25    26    2
     2    26    27   am
     3    27    24    1
     4    24    23    1
     5    23     1    1
     6     1     3    1
     7     4     3    1
     8     4    16    1
     9    16    17    1
    10    17    18   ar
    11    18    19   ar
    12    19    20   ar
    13    20    21   ar
    14    21    22   ar
    15     4     5    1
    16     5     6   am
    17     6     7    2
    18     6     9    1
    19     9    10    1
    20    10    11    1
    21    11    12   ar
    22    12    13   ar
    23    13    14   ar
    24    14    15   ar
    25    24    36    1
    26    36    37    1
    27    37    38   ar
    28    38    39   ar
    29    39    40   ar
    30    40    41   ar
    31    41    42   ar
    32    26    29    1
    33    29    30    1
    34    30    31    1
    35    31    32   ar
    36    32    33   ar
    37    33    34   ar
    38    34    35   ar
    39    22    17   ar
    40    15    11   ar
    41    42    37   ar
    42    35    31   ar
    43    27    28    1
    44     1     2    1
    45     5     8    1
@<TRIPOS>MOLECULE
*****
 42 45 0 0 0
SMALL
GASTEIGER

@<TRIPOS>ATOM
      1 N          62.3967   86.3496   12.2753 N.3     1  UNL1       -0.2947
      2 H          61.9571   85.9782   11.4332 H       1  UNL1        0.1233
      3 C          63.4586   85.3696   12.6775 C.3     1  UNL1        0.0888
      4 C          63.8563   85.2440   14.1184 C.3     1  UNL1        0.0948
      5 N          63.9651   86.4699   14.9760 N.am    1  UNL1       -0.2706
      6 C          63.1280   86.5955   16.2144 C.2     1  UNL1        0.4020
      7 O          62.1821   85.4954   16.5951 O.2     1  UNL1       -0.2264
      8 H          64.5860   87.1919   14.7262 H       1  UNL1        0.1527
      9 O          63.2367   87.8214   17.0720 O.3     1  UNL1       -0.4274
     10 C          62.7272   89.1383   16.5660 C.3     1  UNL1        0.2621
     11 C          63.6862   90.1529   16.0174 C.ar    1  UNL1        0.1323
     12 N          63.8896   91.5452   16.5370 N.ar    1  UNL1       -0.2374
     13 C          64.9393   92.2061   15.6935 C.ar    1  UNL1        0.1062
     14 C          65.3846   91.2221   14.6526 C.ar    1  UNL1        0.0573
     15 S          64.6102   89.9532   14.8527 S.2     1  UNL1       -0.0666
     16 C          64.1452   83.8926   14.7017 C.3     1  UNL1        0.0474
     17 C          63.3982   82.6883   14.2100 C.ar    1  UNL1       -0.0205
     18 C          64.0330   81.7691   13.2090 C.ar    1  UNL1       -0.0042
     19 C          63.2860   80.5648   12.7174 C.ar    1  UNL1       -0.0003
     20 C          61.9043   80.2797   13.2269 C.ar    1  UNL1       -0.0000
     21 C          61.2695   81.1989   14.2279 C.ar    1  UNL1       -0.0003
     22 C          62.0165   82.4032   14.7195 C.ar    1  UNL1       -0.0042
     23 C          62.7635   87.7738   11.9802 C.3     1  UNL1        0.0888
     24 C          62.3467   88.4024   10.6836 C.3     1  UNL1        0.0948
     25 O          62.6178   90.9167   12.2974 O.2     1  UNL1       -0.2264
     26 C          63.2507   90.8245   10.9406 C.2     1  UNL1        0.4020
     27 N          63.1152   89.5674   10.1337 N.am    1  UNL1       -0.2706
     28 H          63.5306   89.5068    9.2432 H       1  UNL1        0.1527
     29 O          64.0192   91.9894   10.3907 O.3     1  UNL1       -0.4291
     30 C          65.1632   92.5680   11.1694 C.3     1  UNL1        0.2447
     31 C          66.3724   93.0889   10.4507 C.ar    1  UNL1        0.0714
     32 C          67.6511   92.3396   10.2188 C.ar    1  UNL1        0.1053
     33 N          68.5841   93.2382    9.4624 N.ar    1  UNL1       -0.2350
     34 C          67.8822   94.5427    9.2268 C.ar    1  UNL1        0.1343
     35 S          66.5153   94.4504    9.8376 S.2     1  UNL1       -0.0652
     36 C          61.1615   87.8661    9.9369 C.3     1  UNL1        0.0474
     37 C          61.3496   86.8043    8.8942 C.ar    1  UNL1       -0.0205
     38 C          60.2143   86.4354    7.9860 C.ar    1  UNL1       -0.0042
     39 C          60.4024   85.3735    6.9434 C.ar    1  UNL1       -0.0003
     40 C          61.7259   84.6805    6.8090 C.ar    1  UNL1       -0.0000
     41 C          62.8613   85.0494    7.7172 C.ar    1  UNL1       -0.0003
     42 C          62.6731   86.1113    8.7598 C.ar    1  UNL1       -0.0042
@<TRIPOS>BOND
     1    25    26    2
     2    26    27   am
     3    27    24    1
     4    24    23    1
     5    23     1    1
     6     1     3    1
     7     4     3    1
     8     4    16    1
     9    16    17    1
    10    17    18   ar
    11    18    19   ar
    12    19    20   ar
    13    20    21   ar
    14    21    22   ar
    15     4     5    1
    16     5     6   am
    17     6     7    2
    18     6     9    1
    19     9    10    1
    20    10    11    1
    21    11    12   ar
    22    12    13   ar
    23    13    14   ar
    24    14    15   ar
    25    24    36    1
    26    36    37    1
    27    37    38   ar
    28    38    39   ar
    29    39    40   ar
    30    40    41   ar
    31    41    42   ar
    32    26    29    1
    33    29    30    1
    34    30    31    1
    35    31    32   ar
    36    32    33   ar
    37    33    34   ar
    38    34    35   ar
    39    22    17   ar
    40    15    11   ar
    41    42    37   ar
    42    35    31   ar
    43    27    28    1
    44     1     2    1
    45     5     8    1
@<TRIPOS>MOLECULE
*****
 42 45 0 0 0
SMALL
GASTEIGER

@<TRIPOS>ATOM
      1 N          60.9366   89.7618   12.1200 N.3     1  UNL1       -0.2947
      2 H          60.8888   90.5821   12.7243 H       1  UNL1        0.1233
      3 C          60.0352   90.0315   10.9518 C.3     1  UNL1        0.0888
      4 C          60.0280   89.0969    9.7785 C.3     1  UNL1        0.0948
      5 N          60.2428   89.6307    8.3932 N.am    1  UNL1       -0.2706
      6 C          59.4362   89.0925    7.2487 C.2     1  UNL1        0.4020
      7 O          58.4150   88.0206    7.4894 O.2     1  UNL1       -0.2264
      8 H          60.9131   90.3342    8.2352 H       1  UNL1        0.1527
      9 O          59.6510   89.6263    5.8634 O.3     1  UNL1       -0.4274
     10 C          59.1855   91.0081    5.5115 C.3     1  UNL1        0.2621
     11 C          59.8316   91.7519    4.3805 C.ar    1  UNL1        0.1323
     12 N          59.1532   92.7279    3.4655 N.ar    1  UNL1       -0.2374
     13 C          60.1718   93.2296    2.4854 C.ar    1  UNL1        0.1062
     14 C          61.4798   92.5636    2.7946 C.ar    1  UNL1        0.0573
     15 S          61.2695   91.6504    3.9658 S.2     1  UNL1       -0.0666
     16 C          59.8061   87.6287    9.9904 C.3     1  UNL1        0.0474
     17 C          60.9522   86.6700    9.8574 C.ar    1  UNL1       -0.0205
     18 C          61.4826   85.9624   11.0690 C.ar    1  UNL1       -0.0042
     19 C          62.6285   85.0038   10.9360 C.ar    1  UNL1       -0.0003
     20 C          63.2442   84.7528    9.5914 C.ar    1  UNL1       -0.0000
     21 C          62.7138   85.4604    8.3798 C.ar    1  UNL1       -0.0003
     22 C          61.5678   86.4190    8.5128 C.ar    1  UNL1       -0.0042
     23 C          62.3914   89.4746   11.8940 C.3     1  UNL1        0.0888
     24 C          63.3345   89.4179   13.0592 C.3     1  UNL1        0.0948
     25 O          63.4300   88.5981   15.9433 O.2     1  UNL1       -0.2264
     26 C          64.0164   87.7055   14.8901 C.2     1  UNL1        0.4020
     27 N          63.9686   88.1153   13.4480 N.am    1  UNL1       -0.2706
     28 H          64.3535   87.5295   12.7567 H       1  UNL1        0.1527
     29 O          64.6505   86.4029   15.2790 O.3     1  UNL1       -0.4291
     30 C          63.7920   85.2457   15.6958 C.3     1  UNL1        0.2447
     31 C          63.6225   84.0695   14.7804 C.ar    1  UNL1        0.0714
     32 C          64.5908   83.6286   13.7229 C.ar    1  UNL1        0.1053
     33 N          64.0217   82.4143   13.0507 N.ar    1  UNL1       -0.2350
     34 C          62.7018   82.1049   13.6927 C.ar    1  UNL1        0.1343
     35 S          62.4551   83.1279   14.7616 S.2     1  UNL1       -0.0652
     36 C          63.6434   90.6637   13.8353 C.3     1  UNL1        0.0474
     37 C          65.0098   91.2774   13.7559 C.ar    1  UNL1       -0.0205
     38 C          66.0012   91.0458   14.8574 C.ar    1  UNL1       -0.0042
     39 C          67.3676   91.6595   14.7780 C.ar    1  UNL1       -0.0003
     40 C          67.7426   92.5048   13.5970 C.ar    1  UNL1       -0.0000
     41 C          66.7512   92.7365   12.4955 C.ar    1  UNL1       -0.0003
     42 C          65.3848   92.1227   12.5749 C.ar    1  UNL1       -0.0042
@<TRIPOS>BOND
     1    25    26    2
     2    26    27   am
     3    27    24    1
     4    24    23    1
     5    23     1    1
     6     1     3    1
     7     4     3    1
     8     4    16    1
     9    16    17    1
    10    17    18   ar
    11    18    19   ar
    12    19    20   ar
    13    20    21   ar
    14    21    22   ar
    15     4     5    1
    16     5     6   am
    17     6     7    2
    18     6     9    1
    19     9    10    1
    20    10    11    1
    21    11    12   ar
    22    12    13   ar
    23    13    14   ar
    24    14    15   ar
    25    24    36    1
    26    36    37    1
    27    37    38   ar
    28    38    39   ar
    29    39    40   ar
    30    40    41   ar
    31    41    42   ar
    32    26    29    1
    33    29    30    1
    34    30    31    1
    35    31    32   ar
    36    32    33   ar
    37    33    34   ar
    38    34    35   ar
    39    22    17   ar
    40    15    11   ar
    41    42    37   ar
    42    35    31   ar
    43    27    28    1
    44     1     2    1
    45     5     8    1
@<TRIPOS>MOLECULE
*****
 42 45 0 0 0
SMALL
GASTEIGER

@<TRIPOS>ATOM
      1 N          62.2380   86.4063   12.1959 N.3     1  UNL1       -0.2947
      2 H          61.6617   86.4756   13.0347 H       1  UNL1        0.1233
      3 C          62.7136   87.7936   11.8814 C.3     1  UNL1        0.0888
      4 C          62.3214   88.4459   10.5887 C.3     1  UNL1        0.0948
      5 N          63.1033   89.6172   10.0723 N.am    1  UNL1       -0.2706
      6 C          63.1443   90.8958   10.8558 C.2     1  UNL1        0.4020
      7 O          62.4035   91.0029   12.1556 O.2     1  UNL1       -0.2264
      8 H          63.5895   89.5469    9.2191 H       1  UNL1        0.1527
      9 O          63.9262   92.0671   10.3393 O.3     1  UNL1       -0.4274
     10 C          65.1705   92.5103   11.0501 C.3     1  UNL1        0.2621
     11 C          66.0503   93.5599   10.4382 C.ar    1  UNL1        0.1323
     12 N          67.2401   93.3103    9.5596 N.ar    1  UNL1       -0.2374
     13 C          67.8199   94.6394    9.1758 C.ar    1  UNL1        0.1062
     14 C          66.9884   95.7104    9.8172 C.ar    1  UNL1        0.0573
     15 S          65.8947   95.0432   10.5974 S.2     1  UNL1       -0.0666
     16 C          61.1475   87.9269    9.8126 C.3     1  UNL1        0.0474
     17 C          61.3375   86.8252    8.8124 C.ar    1  UNL1       -0.0205
     18 C          60.1961   86.4036    7.9353 C.ar    1  UNL1       -0.0042
     19 C          60.3861   85.3019    6.9351 C.ar    1  UNL1       -0.0003
     20 C          61.7175   84.6220    6.8122 C.ar    1  UNL1       -0.0000
     21 C          62.8588   85.0437    7.6893 C.ar    1  UNL1       -0.0003
     22 C          62.6688   86.1453    8.6895 C.ar    1  UNL1       -0.0042
     23 C          63.2322   85.3106   12.4429 C.3     1  UNL1        0.0888
     24 C          63.8499   85.1504   13.8004 C.3     1  UNL1        0.0948
     25 O          62.1463   85.4838   16.2471 O.2     1  UNL1       -0.2264
     26 C          63.1833   86.5135   15.9094 C.2     1  UNL1        0.4020
     27 N          64.0351   86.3468   14.6860 N.am    1  UNL1       -0.2706
     28 H          64.7158   87.0227   14.4644 H       1  UNL1        0.1527
     29 O          63.3685   87.7099   16.7950 O.3     1  UNL1       -0.4291
     30 C          62.8448   89.0486   16.3664 C.3     1  UNL1        0.2447
     31 C          63.7823   90.0761   15.8049 C.ar    1  UNL1        0.0714
     32 C          64.0262   91.4464   16.3644 C.ar    1  UNL1        0.1053
     33 N          65.0352   92.1308   15.4906 N.ar    1  UNL1       -0.2350
     34 C          65.4149   91.1836   14.3912 C.ar    1  UNL1        0.1343
     35 S          64.6406   89.9137   14.5855 S.2     1  UNL1       -0.0652
     36 C          64.2824   83.7939   14.2723 C.3     1  UNL1        0.0474
     37 C          63.4477   82.5884   13.9560 C.ar    1  UNL1       -0.0205
     38 C          62.1079   82.4121   14.6071 C.ar    1  UNL1       -0.0042
     39 C          61.2732   81.2066   14.2908 C.ar    1  UNL1       -0.0003
     40 C          61.7782   80.1775   13.3234 C.ar    1  UNL1       -0.0000
     41 C          63.1179   80.3538   12.6724 C.ar    1  UNL1       -0.0003
     42 C          63.9527   81.5593   12.9887 C.ar    1  UNL1       -0.0042
@<TRIPOS>BOND
     1    25    26    2
     2    26    27   am
     3    27    24    1
     4    24    23    1
     5    23     1    1
     6     1     3    1
     7     4     3    1
     8     4    16    1
     9    16    17    1
    10    17    18   ar
    11    18    19   ar
    12    19    20   ar
    13    20    21   ar
    14    21    22   ar
    15     4     5    1
    16     5     6   am
    17     6     7    2
    18     6     9    1
    19     9    10    1
    20    10    11    1
    21    11    12   ar
    22    12    13   ar
    23    13    14   ar
    24    14    15   ar
    25    24    36    1
    26    36    37    1
    27    37    38   ar
    28    38    39   ar
    29    39    40   ar
    30    40    41   ar
    31    41    42   ar
    32    26    29    1
    33    29    30    1
    34    30    31    1
    35    31    32   ar
    36    32    33   ar
    37    33    34   ar
    38    34    35   ar
    39    22    17   ar
    40    15    11   ar
    41    42    37   ar
    42    35    31   ar
    43    27    28    1
    44     1     2    1
    45     5     8    1
@<TRIPOS>MOLECULE
*****
 42 45 0 0 0
SMALL
GASTEIGER

@<TRIPOS>ATOM
      1 N          62.4735   89.6392   11.2156 N.3     1  UNL1       -0.2947
      2 H          62.8258   88.8023   10.7510 H       1  UNL1        0.1233
      3 C          61.0502   89.8124   10.7749 C.3     1  UNL1        0.0888
      4 C          60.4903   88.9425    9.6885 C.3     1  UNL1        0.0948
      5 N          60.2491   89.5114    8.3217 N.am    1  UNL1       -0.2706
      6 C          59.3375   88.8025    7.3644 C.2     1  UNL1        0.4020
      7 O          58.6671   87.5247    7.7740 O.2     1  UNL1       -0.2264
      8 H          60.6892   90.3501    8.0529 H       1  UNL1        0.1527
      9 O          59.0963   89.3714    5.9976 O.3     1  UNL1       -0.4274
     10 C          58.9143   90.8499    5.8220 C.3     1  UNL1        0.2621
     11 C          59.6368   91.5690    4.7216 C.ar    1  UNL1        0.1323
     12 N          59.0476   92.6031    3.8087 N.ar    1  UNL1       -0.2374
     13 C          60.1220   93.0536    2.8638 C.ar    1  UNL1        0.1062
     14 C          61.3752   92.2978    3.1927 C.ar    1  UNL1        0.0573
     15 S          61.0753   91.3803    4.3409 S.2     1  UNL1       -0.0666
     16 C          60.1716   87.5039    9.9691 C.3     1  UNL1        0.0474
     17 C          61.2560   86.4694    9.9064 C.ar    1  UNL1       -0.0205
     18 C          61.9197   86.1569    8.5980 C.ar    1  UNL1       -0.0042
     19 C          63.0041   85.1225    8.5354 C.ar    1  UNL1       -0.0003
     20 C          63.4248   84.4005    9.7811 C.ar    1  UNL1       -0.0000
     21 C          62.7611   84.7130   11.0894 C.ar    1  UNL1       -0.0003
     22 C          61.6767   85.7475   11.1521 C.ar    1  UNL1       -0.0042
     23 C          62.7946   89.4927   12.6734 C.3     1  UNL1        0.0888
     24 C          63.7991   90.4033   13.3154 C.3     1  UNL1        0.0948
     25 O          66.4841   91.6046   13.9046 O.2     1  UNL1       -0.2264
     26 C          65.5720   92.2585   12.9094 C.2     1  UNL1        0.4020
     27 N          64.2295   91.6579   12.6148 N.am    1  UNL1       -0.2706
     28 H          63.6308   92.0870   11.9616 H       1  UNL1        0.1527
     29 O          66.0024   93.5131   12.2089 O.3     1  UNL1       -0.4291
     30 C          66.6133   93.4365   10.8411 C.3     1  UNL1        0.2447
     31 C          66.6500   94.6547    9.9667 C.ar    1  UNL1        0.0714
     32 C          65.8209   95.8922   10.1436 C.ar    1  UNL1        0.1053
     33 N          66.1807   96.8517    9.0481 N.ar    1  UNL1       -0.2350
     34 C          67.2321   96.2071    8.1942 C.ar    1  UNL1        0.1343
     35 S          67.5221   94.8493    8.7620 S.2     1  UNL1       -0.0652
     36 C          64.3731   90.0592   14.6578 C.3     1  UNL1        0.0474
     37 C          64.0116   88.7617   15.3178 C.ar    1  UNL1       -0.0205
     38 C          64.4590   87.4632   14.7148 C.ar    1  UNL1       -0.0042
     39 C          64.0975   86.1657   15.3748 C.ar    1  UNL1       -0.0003
     40 C          63.2886   86.1666   16.6380 C.ar    1  UNL1       -0.0000
     41 C          62.8412   87.4651   17.2411 C.ar    1  UNL1       -0.0003
     42 C          63.2027   88.7626   16.5810 C.ar    1  UNL1       -0.0042
@<TRIPOS>BOND
     1    25    26    2
     2    26    27   am
     3    27    24    1
     4    24    23    1
     5    23     1    1
     6     1     3    1
     7     4     3    1
     8     4    16    1
     9    16    17    1
    10    17    18   ar
    11    18    19   ar
    12    19    20   ar
    13    20    21   ar
    14    21    22   ar
    15     4     5    1
    16     5     6   am
    17     6     7    2
    18     6     9    1
    19     9    10    1
    20    10    11    1
    21    11    12   ar
    22    12    13   ar
    23    13    14   ar
    24    14    15   ar
    25    24    36    1
    26    36    37    1
    27    37    38   ar
    28    38    39   ar
    29    39    40   ar
    30    40    41   ar
    31    41    42   ar
    32    26    29    1
    33    29    30    1
    34    30    31    1
    35    31    32   ar
    36    32    33   ar
    37    33    34   ar
    38    34    35   ar
    39    22    17   ar
    40    15    11   ar
    41    42    37   ar
    42    35    31   ar
    43    27    28    1
    44     1     2    1
    45     5     8    1
@<TRIPOS>MOLECULE
*****
 42 45 0 0 0
SMALL
GASTEIGER

@<TRIPOS>ATOM
      1 N          60.8426   87.2811   12.0209 N.3     1  UNL1       -0.2947
      2 H          60.7951   87.4447   13.0266 H       1  UNL1        0.1233
      3 C          60.4452   88.5647   11.3542 C.3     1  UNL1        0.0888
      4 C          60.7814   88.7954    9.9107 C.3     1  UNL1        0.0948
      5 N          61.7170   89.9031    9.5263 N.am    1  UNL1       -0.2706
      6 C          62.5217   90.6047   10.5800 C.2     1  UNL1        0.4020
      7 O          62.3910   90.1985   12.0180 O.2     1  UNL1       -0.2264
      8 H          61.8028   90.1697    8.5825 H       1  UNL1        0.1527
      9 O          63.4573   91.7124   10.1956 O.3     1  UNL1       -0.4274
     10 C          64.6458   92.0229   11.0564 C.3     1  UNL1        0.2621
     11 C          65.7100   92.9549   10.5577 C.ar    1  UNL1        0.1323
     12 N          67.0123   92.5520    9.9319 N.ar    1  UNL1       -0.2374
     13 C          67.7660   93.8016    9.5846 C.ar    1  UNL1        0.1062
     14 C          66.9295   94.9768    9.9959 C.ar    1  UNL1        0.0573
     15 S          65.6589   94.4535   10.5973 S.2     1  UNL1       -0.0666
     16 C          60.1821   87.9185    8.8516 C.3     1  UNL1        0.0474
     17 C          60.9695   86.7692    8.2954 C.ar    1  UNL1       -0.0205
     18 C          62.3578   86.4995    8.7953 C.ar    1  UNL1       -0.0042
     19 C          63.1451   85.3503    8.2391 C.ar    1  UNL1       -0.0003
     20 C          62.5441   84.4708    7.1829 C.ar    1  UNL1       -0.0000
     21 C          61.1559   84.7405    6.6830 C.ar    1  UNL1       -0.0003
     22 C          60.3686   85.8897    7.2392 C.ar    1  UNL1       -0.0042
     23 C          62.1871   86.6769   11.7435 C.3     1  UNL1        0.0888
     24 C          63.2579   86.7157   12.7933 C.3     1  UNL1        0.0948
     25 O          63.5915   87.2665   15.7233 O.2     1  UNL1       -0.2264
     26 C          63.9794   88.3077   14.7156 C.2     1  UNL1        0.4020
     27 N          63.8125   88.0322   13.2506 N.am    1  UNL1       -0.2706
     28 H          64.0671   88.7156   12.5891 H       1  UNL1        0.1527
     29 O          64.5340   89.6242   15.1728 O.3     1  UNL1       -0.4291
     30 C          65.0175   90.6249   14.1654 C.3     1  UNL1        0.2447
     31 C          66.1270   91.5700   14.5200 C.ar    1  UNL1        0.0714
     32 C          67.3582   91.8303   13.7036 C.ar    1  UNL1        0.1053
     33 N          68.1922   92.8420   14.4323 N.ar    1  UNL1       -0.2350
     34 C          67.4765   93.2069   15.6991 C.ar    1  UNL1        0.1343
     35 S          66.2002   92.4208   15.7533 S.2     1  UNL1       -0.0652
     36 C          63.7740   85.4380   13.3858 C.3     1  UNL1        0.0474
     37 C          63.5347   84.1348   12.6827 C.ar    1  UNL1       -0.0205
     38 C          64.2736   83.8193   11.4160 C.ar    1  UNL1       -0.0042
     39 C          64.0343   82.5161   10.7129 C.ar    1  UNL1       -0.0003
     40 C          63.0561   81.5284   11.2764 C.ar    1  UNL1       -0.0000
     41 C          62.3172   81.8439   12.5431 C.ar    1  UNL1       -0.0003
     42 C          62.5565   83.1471   13.2462 C.ar    1  UNL1       -0.0042
@<TRIPOS>BOND
     1    25    26    2
     2    26    27   am
     3    27    24    1
     4    24    23    1
     5    23     1    1
     6     1     3    1
     7     4     3    1
     8     4    16    1
     9    16    17    1
    10    17    18   ar
    11    18    19   ar
    12    19    20   ar
    13    20    21   ar
    14    21    22   ar
    15     4     5    1
    16     5     6   am
    17     6     7    2
    18     6     9    1
    19     9    10    1
    20    10    11    1
    21    11    12   ar
    22    12    13   ar
    23    13    14   ar
    24    14    15   ar
    25    24    36    1
    26    36    37    1
    27    37    38   ar
    28    38    39   ar
    29    39    40   ar
    30    40    41   ar
    31    41    42   ar
    32    26    29    1
    33    29    30    1
    34    30    31    1
    35    31    32   ar
    36    32    33   ar
    37    33    34   ar
    38    34    35   ar
    39    22    17   ar
    40    15    11   ar
    41    42    37   ar
    42    35    31   ar
    43    27    28    1
    44     1     2    1
    45     5     8    1
@<TRIPOS>MOLECULE
*****
 42 45 0 0 0
SMALL
GASTEIGER

@<TRIPOS>ATOM
      1 N          63.2886   88.6306   11.9459 N.3     1  UNL1       -0.2947
      2 H          63.3648   88.1295   11.0607 H       1  UNL1        0.1233
      3 C          62.0447   89.4649   11.8653 C.3     1  UNL1        0.0888
      4 C          61.6202   90.0538   10.5526 C.3     1  UNL1        0.0948
      5 N          62.4663   91.1015    9.8920 N.am    1  UNL1       -0.2706
      6 C          63.5794   91.7571   10.6544 C.2     1  UNL1        0.4020
      7 O          63.8464   91.3650   12.0774 O.2     1  UNL1       -0.2264
      8 H          62.2910   91.3589    8.9580 H       1  UNL1        0.1527
      9 O          64.4255   92.8048    9.9938 O.3     1  UNL1       -0.4274
     10 C          65.7180   93.2320   10.6237 C.3     1  UNL1        0.2621
     11 C          66.3583   94.5264   10.2181 C.ar    1  UNL1        0.1323
     12 N          67.2120   94.7456    9.0043 N.ar    1  UNL1       -0.2374
     13 C          67.6386   96.1835    8.9911 C.ar    1  UNL1        0.1062
     14 C          67.0486   96.8532   10.1967 C.ar    1  UNL1        0.0573
     15 S          66.2573   95.8290   10.9550 S.2     1  UNL1       -0.0666
     16 C          60.3497   89.5949    9.9005 C.3     1  UNL1        0.0474
     17 C          60.3262   88.3116    9.1242 C.ar    1  UNL1       -0.0205
     18 C          61.4795   87.3571    9.2178 C.ar    1  UNL1       -0.0042
     19 C          61.4559   86.0739    8.4415 C.ar    1  UNL1       -0.0003
     20 C          60.2790   85.7451    7.5716 C.ar    1  UNL1       -0.0000
     21 C          59.1257   86.6995    7.4780 C.ar    1  UNL1       -0.0003
     22 C          59.1492   87.9828    8.2543 C.ar    1  UNL1       -0.0042
     23 C          63.4381   87.6105   13.0353 C.3     1  UNL1        0.0888
     24 C          64.1635   87.9643   14.2997 C.3     1  UNL1        0.0948
     25 O          62.1333   89.5843   15.8009 O.2     1  UNL1       -0.2264
     26 C          63.4284   90.2112   15.3773 C.2     1  UNL1        0.4020
     27 N          64.4435   89.4012   14.6267 N.am    1  UNL1       -0.2706
     28 H          65.2936   89.8127   14.3486 H       1  UNL1        0.1527
     29 O          63.7085   91.6481   15.7042 O.3     1  UNL1       -0.4291
     30 C          64.9744   92.0223   16.4166 C.3     1  UNL1        0.2447
     31 C          66.1937   92.4019   15.6298 C.ar    1  UNL1        0.0714
     32 C          66.2211   92.8016   14.1842 C.ar    1  UNL1        0.1053
     33 N          67.6441   93.0952   13.8114 N.ar    1  UNL1       -0.2350
     34 C          68.4961   92.8769   15.0264 C.ar    1  UNL1        0.1343
     35 S          67.5997   92.4485   16.1502 S.2     1  UNL1       -0.0652
     36 C          64.6087   86.8813   15.2372 C.3     1  UNL1        0.0474
     37 C          64.1598   85.4672   15.0167 C.ar    1  UNL1       -0.0205
     38 C          62.9412   84.9488   15.7210 C.ar    1  UNL1       -0.0042
     39 C          62.4922   83.5346   15.5006 C.ar    1  UNL1       -0.0003
     40 C          63.2619   82.6389   14.5758 C.ar    1  UNL1       -0.0000
     41 C          64.4805   83.1573   13.8715 C.ar    1  UNL1       -0.0003
     42 C          64.9295   84.5715   14.0920 C.ar    1  UNL1       -0.0042
@<TRIPOS>BOND
     1    25    26    2
     2    26    27   am
     3    27    24    1
     4    24    23    1
     5    23     1    1
     6     1     3    1
     7     4     3    1
     8     4    16    1
     9    16    17    1
    10    17    18   ar
    11    18    19   ar
    12    19    20   ar
    13    20    21   ar
    14    21    22   ar
    15     4     5    1
    16     5     6   am
    17     6     7    2
    18     6     9    1
    19     9    10    1
    20    10    11    1
    21    11    12   ar
    22    12    13   ar
    23    13    14   ar
    24    14    15   ar
    25    24    36    1
    26    36    37    1
    27    37    38   ar
    28    38    39   ar
    29    39    40   ar
    30    40    41   ar
    31    41    42   ar
    32    26    29    1
    33    29    30    1
    34    30    31    1
    35    31    32   ar
    36    32    33   ar
    37    33    34   ar
    38    34    35   ar
    39    22    17   ar
    40    15    11   ar
    41    42    37   ar
    42    35    31   ar
    43    27    28    1
    44     1     2    1
    45     5     8    1
