@<TRIPOS>MOLECULE
*****
 28 31 0 0 0
SMALL
GASTEIGER

@<TRIPOS>ATOM
      1 N          62.3601   86.4525   11.7024 N.pl3   1  UNL1       -0.2872
      2 C          62.7373   82.2261   13.2010 C.ar    1  UNL1        0.0715
      3 C          62.9577   82.5294   11.7486 C.ar    1  UNL1        0.0051
      4 C          62.8320   83.9382   11.2491 C.ar    1  UNL1        0.0148
      5 C          62.4859   85.0437   12.2020 C.ar    1  UNL1        0.0515
      6 C          62.2654   84.7404   13.6543 C.ar    1  UNL1        0.0148
      7 C          62.3911   83.3317   14.1538 C.ar    1  UNL1        0.0051
      8 F          62.9887   79.4086   14.2000 F       1  UNL1       -0.1659
      9 C          62.8630   80.8173   13.7005 C.3     1  UNL1        0.4186
     10 F          64.3399   80.8573   13.4414 F       1  UNL1       -0.1659
     11 F          61.3861   80.7774   13.9597 F       1  UNL1       -0.1659
     12 C          61.5517   86.7429   10.4728 C.ar    1  UNL1        0.0710
     13 C          61.9660   86.1695    9.1501 C.ar    1  UNL1        0.0180
     14 C          61.1575   86.4600    7.9204 C.ar    1  UNL1        0.0220
     15 C          59.9347   87.3238    8.0135 C.ar    1  UNL1        0.0990
     16 N          59.5205   87.8972    9.3362 N.ar    1  UNL1       -0.2410
     17 C          60.3289   87.6068   10.5659 C.ar    1  UNL1        0.1136
     18 C          63.0429   87.5709   12.4326 C.3     1  UNL1        0.0807
     19 C          62.9538   88.9735   11.9083 C.3     1  UNL1        0.0416
     20 C          63.6365   90.0918   12.6384 C.3     1  UNL1        0.0944
     21 N          64.4083   89.8077   13.8928 N.pl3   1  UNL1       -0.2880
     22 C          64.4975   88.4051   14.4171 C.3     1  UNL1        0.0944
     23 C          63.8147   87.2867   13.6869 C.3     1  UNL1        0.0416
     24 C          65.0911   90.9261   14.6229 C.ar    1  UNL1        0.1631
     25 N          64.5592   91.6483   15.8252 N.ar    1  UNL1       -0.2225
     26 C          65.5649   92.6873   16.2243 C.ar    1  UNL1        0.1079
     27 C          66.7183   92.6071   15.2686 C.ar    1  UNL1        0.0588
     28 S          66.4254   91.5187   14.2789 S.2     1  UNL1       -0.0509
@<TRIPOS>BOND
     1     8     9    1
     2     9    10    1
     3     9    11    1
     4     9     2    1
     5     2     3   ar
     6     3     4   ar
     7     4     5   ar
     8     5     1    1
     9     1    12    1
    10    12    13   ar
    11    13    14   ar
    12    14    15   ar
    13    15    16   ar
    14    16    17   ar
    15     1    18    1
    16    18    19    1
    17    19    20    1
    18    20    21    1
    19    21    24    1
    20    24    25   ar
    21    25    26   ar
    22    26    27   ar
    23    27    28   ar
    24    21    22    1
    25    22    23    1
    26     5     6   ar
    27     6     7   ar
    28     7     2   ar
    29    17    12   ar
    30    23    18    1
    31    28    24   ar
@<TRIPOS>MOLECULE
*****
 28 31 0 0 0
SMALL
GASTEIGER

@<TRIPOS>ATOM
      1 N          62.1395   87.2600   10.9167 N.pl3   1  UNL1       -0.2872
      2 C          62.8422   82.9839   12.1295 C.ar    1  UNL1        0.0715
      3 C          62.3504   83.9786   13.1387 C.ar    1  UNL1        0.0051
      4 C          62.1162   85.4040   12.7345 C.ar    1  UNL1        0.0148
      5 C          62.3737   85.8346   11.3209 C.ar    1  UNL1        0.0515
      6 C          62.8655   84.8399   10.3117 C.ar    1  UNL1        0.0148
      7 C          63.0997   83.4146   10.7159 C.ar    1  UNL1        0.0051
      8 F          63.3106   80.1331   12.9380 F       1  UNL1       -0.1659
      9 C          63.0764   81.5585   12.5337 C.3     1  UNL1        0.4186
     10 F          63.3149   81.1908   11.0992 F       1  UNL1       -0.1659
     11 F          62.8379   81.9262   13.9683 F       1  UNL1       -0.1659
     12 C          61.1491   87.5802    9.8366 C.ar    1  UNL1        0.0710
     13 C          60.8759   89.0086    9.4690 C.ar    1  UNL1        0.0180
     14 C          59.8854   89.3287    8.3889 C.ar    1  UNL1        0.0220
     15 C          59.1683   88.2206    7.6764 C.ar    1  UNL1        0.0990
     16 N          59.4416   86.7922    8.0439 N.ar    1  UNL1       -0.2410
     17 C          60.4320   86.4720    9.1240 C.ar    1  UNL1        0.1136
     18 C          62.8957   88.3652   11.5925 C.3     1  UNL1        0.0807
     19 C          63.5359   88.1284   12.9282 C.3     1  UNL1        0.0416
     20 C          64.2921   89.2335   13.6040 C.3     1  UNL1        0.0944
     21 N          64.4080   90.5756   12.9441 N.pl3   1  UNL1       -0.2880
     22 C          63.7678   90.8125   11.6085 C.3     1  UNL1        0.0944
     23 C          63.0116   89.7073   10.9326 C.3     1  UNL1        0.0416
     24 C          65.1642   91.6808   13.6200 C.ar    1  UNL1        0.1631
     25 N          65.6393   92.9480   12.9730 N.ar    1  UNL1       -0.2225
     26 C          66.3468   93.7633   14.0146 C.ar    1  UNL1        0.1079
     27 C          66.3090   92.9998   15.3053 C.ar    1  UNL1        0.0588
     28 S          65.5781   91.7129   15.0614 S.2     1  UNL1       -0.0509
@<TRIPOS>BOND
     1     8     9    1
     2     9    10    1
     3     9    11    1
     4     9     2    1
     5     2     3   ar
     6     3     4   ar
     7     4     5   ar
     8     5     1    1
     9     1    12    1
    10    12    13   ar
    11    13    14   ar
    12    14    15   ar
    13    15    16   ar
    14    16    17   ar
    15     1    18    1
    16    18    19    1
    17    19    20    1
    18    20    21    1
    19    21    24    1
    20    24    25   ar
    21    25    26   ar
    22    26    27   ar
    23    27    28   ar
    24    21    22    1
    25    22    23    1
    26     5     6   ar
    27     6     7   ar
    28     7     2   ar
    29    17    12   ar
    30    23    18    1
    31    28    24   ar
@<TRIPOS>MOLECULE
*****
 28 31 0 0 0
SMALL
GASTEIGER

@<TRIPOS>ATOM
      1 N          62.8711   86.2360   12.3681 N.pl3   1  UNL1       -0.2872
      2 C          60.2935   86.7855    8.7206 C.ar    1  UNL1        0.0715
      3 C          59.9175   87.4500   10.0117 C.ar    1  UNL1        0.0051
      4 C          60.7767   87.2668   11.2276 C.ar    1  UNL1        0.0148
      5 C          62.0119   86.4191   11.1523 C.ar    1  UNL1        0.0515
      6 C          62.3879   85.7547    9.8612 C.ar    1  UNL1        0.0148
      7 C          61.5287   85.9378    8.6453 C.ar    1  UNL1        0.0051
      8 F          58.5752   87.1518    6.2889 F       1  UNL1       -0.1659
      9 C          59.4343   86.9686    7.5048 C.3     1  UNL1        0.4186
     10 F          59.1590   88.3856    7.9128 F       1  UNL1       -0.1659
     11 F          59.7096   85.5517    7.0968 F       1  UNL1       -0.1659
     12 C          63.1143   84.8603   12.9143 C.ar    1  UNL1        0.0710
     13 C          64.0809   83.9411   12.2283 C.ar    1  UNL1        0.0180
     14 C          64.3241   82.5654   12.7745 C.ar    1  UNL1        0.0220
     15 C          63.6007   82.1089   14.0067 C.ar    1  UNL1        0.0990
     16 N          62.6341   83.0282   14.6927 N.ar    1  UNL1       -0.2410
     17 C          62.3909   84.4038   14.1465 C.ar    1  UNL1        0.1136
     18 C          63.4870   87.4285   13.0378 C.3     1  UNL1        0.0807
     19 C          63.3707   88.7853   12.4087 C.3     1  UNL1        0.0416
     20 C          63.9867   89.9778   13.0783 C.3     1  UNL1        0.0944
     21 N          64.7189   89.8136   14.3771 N.pl3   1  UNL1       -0.2880
     22 C          64.8352   88.4569   15.0063 C.3     1  UNL1        0.0944
     23 C          64.2193   87.2643   14.3366 C.3     1  UNL1        0.0416
     24 C          65.3349   91.0062   15.0468 C.ar    1  UNL1        0.1631
     25 N          64.6886   91.8581   16.0987 N.ar    1  UNL1       -0.2225
     26 C          65.6596   92.9347   16.4842 C.ar    1  UNL1        0.1079
     27 C          66.9058   92.7480   15.6705 C.ar    1  UNL1        0.0588
     28 S          66.7051   91.5561   14.7821 S.2     1  UNL1       -0.0509
@<TRIPOS>BOND
     1     8     9    1
     2     9    10    1
     3     9    11    1
     4     9     2    1
     5     2     3   ar
     6     3     4   ar
     7     4     5   ar
     8     5     1    1
     9     1    12    1
    10    12    13   ar
    11    13    14   ar
    12    14    15   ar
    13    15    16   ar
    14    16    17   ar
    15     1    18    1
    16    18    19    1
    17    19    20    1
    18    20    21    1
    19    21    24    1
    20    24    25   ar
    21    25    26   ar
    22    26    27   ar
    23    27    28   ar
    24    21    22    1
    25    22    23    1
    26     5     6   ar
    27     6     7   ar
    28     7     2   ar
    29    17    12   ar
    30    23    18    1
    31    28    24   ar
@<TRIPOS>MOLECULE
*****
 28 31 0 0 0
SMALL
GASTEIGER

@<TRIPOS>ATOM
      1 N          62.8400   88.7883   12.1948 N.pl3   1  UNL1       -0.2872
      2 C          65.7804   91.5825   14.1432 C.ar    1  UNL1        0.0715
      3 C          65.3734   90.3177   14.8392 C.ar    1  UNL1        0.0051
      4 C          64.3932   89.3863   14.1897 C.ar    1  UNL1        0.0148
      5 C          63.8201   89.7197   12.8443 C.ar    1  UNL1        0.0515
      6 C          64.2271   90.9846   12.1483 C.ar    1  UNL1        0.0148
      7 C          65.2072   91.9160   12.7978 C.ar    1  UNL1        0.0051
      8 F          67.7407   93.4453   15.4422 F       1  UNL1       -0.1659
      9 C          66.7605   92.5139   14.7927 C.3     1  UNL1        0.4186
     10 F          67.4729   91.3414   15.3991 F       1  UNL1       -0.1659
     11 F          66.0481   93.6865   14.1864 F       1  UNL1       -0.1659
     12 C          61.7619   89.3345   11.3064 C.ar    1  UNL1        0.0710
     13 C          61.8275   89.1129    9.8243 C.ar    1  UNL1        0.0180
     14 C          60.7493   89.6591    8.9359 C.ar    1  UNL1        0.0220
     15 C          59.6056   90.4269    9.5295 C.ar    1  UNL1        0.0990
     16 N          59.5400   90.6484   11.0116 N.ar    1  UNL1       -0.2410
     17 C          60.6181   90.1023   11.9000 C.ar    1  UNL1        0.1136
     18 C          62.9379   87.3108   12.4338 C.3     1  UNL1        0.0807
     19 C          63.7000   86.7912   13.6168 C.3     1  UNL1        0.0416
     20 C          63.7979   85.3136   13.8557 C.3     1  UNL1        0.0944
     21 N          63.1339   84.3555   12.9118 N.pl3   1  UNL1       -0.2880
     22 C          62.3719   84.8750   11.7288 C.3     1  UNL1        0.0944
     23 C          62.2739   86.3527   11.4898 C.3     1  UNL1        0.0416
     24 C          63.2319   82.8779   13.1508 C.ar    1  UNL1        0.1631
     25 N          63.7791   82.2184   14.3819 N.ar    1  UNL1       -0.2225
     26 C          63.6853   80.7332   14.1926 C.ar    1  UNL1        0.1079
     27 C          63.0801   80.4750   12.8446 C.ar    1  UNL1        0.0588
     28 S          62.7999   81.8005   12.2007 S.2     1  UNL1       -0.0509
@<TRIPOS>BOND
     1     8     9    1
     2     9    10    1
     3     9    11    1
     4     9     2    1
     5     2     3   ar
     6     3     4   ar
     7     4     5   ar
     8     5     1    1
     9     1    12    1
    10    12    13   ar
    11    13    14   ar
    12    14    15   ar
    13    15    16   ar
    14    16    17   ar
    15     1    18    1
    16    18    19    1
    17    19    20    1
    18    20    21    1
    19    21    24    1
    20    24    25   ar
    21    25    26   ar
    22    26    27   ar
    23    27    28   ar
    24    21    22    1
    25    22    23    1
    26     5     6   ar
    27     6     7   ar
    28     7     2   ar
    29    17    12   ar
    30    23    18    1
    31    28    24   ar
@<TRIPOS>MOLECULE
*****
 28 31 0 0 0
SMALL
GASTEIGER

@<TRIPOS>ATOM
      1 N          63.7264   89.1184   14.4443 N.pl3   1  UNL1       -0.2872
      2 C          66.5329   92.5748   15.0980 C.ar    1  UNL1        0.0715
      3 C          65.3833   92.3544   16.0359 C.ar    1  UNL1        0.0051
      4 C          64.4478   91.2023   15.8180 C.ar    1  UNL1        0.0148
      5 C          64.6619   90.2705   14.6622 C.ar    1  UNL1        0.0515
      6 C          65.8115   90.4910   13.7242 C.ar    1  UNL1        0.0148
      7 C          66.7470   91.6431   13.9421 C.ar    1  UNL1        0.0051
      8 F          68.4039   94.8790   15.5338 F       1  UNL1       -0.1659
      9 C          67.4684   93.7269   15.3159 C.3     1  UNL1        0.4186
     10 F          66.8076   94.4751   14.1963 F       1  UNL1       -0.1659
     11 F          68.1291   92.9787   16.4355 F       1  UNL1       -0.1659
     12 C          63.5640   88.0727   15.5073 C.ar    1  UNL1        0.0710
     13 C          62.9203   88.4264   16.8152 C.ar    1  UNL1        0.0180
     14 C          62.7579   87.3806   17.8782 C.ar    1  UNL1        0.0220
     15 C          63.2394   85.9812   17.6334 C.ar    1  UNL1        0.0990
     16 N          63.8832   85.6276   16.3256 N.ar    1  UNL1       -0.2410
     17 C          64.0455   86.6733   15.2625 C.ar    1  UNL1        0.1136
     18 C          62.9532   89.0120   13.1633 C.3     1  UNL1        0.0807
     19 C          63.1257   87.8115   12.2807 C.3     1  UNL1        0.0416
     20 C          62.3526   87.7051   10.9997 C.3     1  UNL1        0.0944
     21 N          61.4069   88.7991   10.6014 N.pl3   1  UNL1       -0.2880
     22 C          61.2344   89.9996   11.4839 C.3     1  UNL1        0.0944
     23 C          62.0076   90.1061   12.7650 C.3     1  UNL1        0.0416
     24 C          60.6337   88.6927    9.3203 C.ar    1  UNL1        0.1631
     25 N          60.2685   89.8306    8.4139 N.ar    1  UNL1       -0.2225
     26 C          59.4991   89.2709    7.2542 C.ar    1  UNL1        0.1079
     27 C          59.3889   87.7870    7.4440 C.ar    1  UNL1        0.0588
     28 S          60.0901   87.4297    8.7210 S.2     1  UNL1       -0.0509
@<TRIPOS>BOND
     1     8     9    1
     2     9    10    1
     3     9    11    1
     4     9     2    1
     5     2     3   ar
     6     3     4   ar
     7     4     5   ar
     8     5     1    1
     9     1    12    1
    10    12    13   ar
    11    13    14   ar
    12    14    15   ar
    13    15    16   ar
    14    16    17   ar
    15     1    18    1
    16    18    19    1
    17    19    20    1
    18    20    21    1
    19    21    24    1
    20    24    25   ar
    21    25    26   ar
    22    26    27   ar
    23    27    28   ar
    24    21    22    1
    25    22    23    1
    26     5     6   ar
    27     6     7   ar
    28     7     2   ar
    29    17    12   ar
    30    23    18    1
    31    28    24   ar
@<TRIPOS>MOLECULE
*****
 28 31 0 0 0
SMALL
GASTEIGER

@<TRIPOS>ATOM
      1 N          62.5814   86.9713   11.6709 N.pl3   1  UNL1       -0.2872
      2 C          59.9768   88.2140    8.2181 C.ar    1  UNL1        0.0715
      3 C          60.1246   86.7613    8.5613 C.ar    1  UNL1        0.0051
      4 C          60.9928   86.3471    9.7122 C.ar    1  UNL1        0.0148
      5 C          61.7132   87.3855   10.5200 C.ar    1  UNL1        0.0515
      6 C          61.5654   88.8382   10.1768 C.ar    1  UNL1        0.0148
      7 C          60.6972   89.2525    9.0259 C.ar    1  UNL1        0.0051
      8 F          58.2403   89.0425    5.9163 F       1  UNL1       -0.1659
      9 C          59.1085   88.6283    7.0672 C.3     1  UNL1        0.4186
     10 F          58.3251   87.3561    7.2003 F       1  UNL1       -0.1659
     11 F          59.8920   89.9004    6.9341 F       1  UNL1       -0.1659
     12 C          62.7777   85.5160   11.9765 C.ar    1  UNL1        0.0710
     13 C          63.3324   84.5976   10.9282 C.ar    1  UNL1        0.0180
     14 C          63.5287   83.1422   11.2339 C.ar    1  UNL1        0.0220
     15 C          63.1703   82.6053   12.5878 C.ar    1  UNL1        0.0990
     16 N          62.6156   83.5236   13.6361 N.ar    1  UNL1       -0.2410
     17 C          62.4193   84.9789   13.3305 C.ar    1  UNL1        0.1136
     18 C          63.2533   88.0124   12.5162 C.3     1  UNL1        0.0807
     19 C          63.9317   87.6173   13.7944 C.3     1  UNL1        0.0416
     20 C          64.6036   88.6584   14.6398 C.3     1  UNL1        0.0944
     21 N          64.5972   90.0946   14.2069 N.pl3   1  UNL1       -0.2880
     22 C          63.9188   90.4897   12.9288 C.3     1  UNL1        0.0944
     23 C          63.2469   89.4486   12.0834 C.3     1  UNL1        0.0416
     24 C          65.2692   91.1357   15.0523 C.ar    1  UNL1        0.1631
     25 N          64.6444   91.8827   16.1932 N.ar    1  UNL1       -0.2225
     26 C          65.6729   92.8213   16.7513 C.ar    1  UNL1        0.1079
     27 C          66.9333   92.6543   15.9552 C.ar    1  UNL1        0.0588
     28 S          66.6837   91.6125   14.9052 S.2     1  UNL1       -0.0509
@<TRIPOS>BOND
     1     8     9    1
     2     9    10    1
     3     9    11    1
     4     9     2    1
     5     2     3   ar
     6     3     4   ar
     7     4     5   ar
     8     5     1    1
     9     1    12    1
    10    12    13   ar
    11    13    14   ar
    12    14    15   ar
    13    15    16   ar
    14    16    17   ar
    15     1    18    1
    16    18    19    1
    17    19    20    1
    18    20    21    1
    19    21    24    1
    20    24    25   ar
    21    25    26   ar
    22    26    27   ar
    23    27    28   ar
    24    21    22    1
    25    22    23    1
    26     5     6   ar
    27     6     7   ar
    28     7     2   ar
    29    17    12   ar
    30    23    18    1
    31    28    24   ar
@<TRIPOS>MOLECULE
*****
 28 31 0 0 0
SMALL
GASTEIGER

@<TRIPOS>ATOM
      1 N          62.0961   93.8609   -1.7684 N.pl3   1  UNL1       -0.2872
      2 C          64.9577   93.9167   -5.2409 C.ar    1  UNL1        0.0715
      3 C          64.4907   95.2061   -4.6331 C.ar    1  UNL1        0.0051
      4 C          63.5368   95.1875   -3.4756 C.ar    1  UNL1        0.0148
      5 C          63.0500   93.8795   -2.9259 C.ar    1  UNL1        0.0515
      6 C          63.5170   92.5902   -3.5337 C.ar    1  UNL1        0.0148
      7 C          64.4709   92.6088   -4.6912 C.ar    1  UNL1        0.0051
      8 F          66.8655   93.9540   -7.5559 F       1  UNL1       -0.1659
      9 C          65.9116   93.9354   -6.3984 C.3     1  UNL1        0.4186
     10 F          66.0977   95.4132   -6.2213 F       1  UNL1       -0.1659
     11 F          65.7255   92.4575   -6.5755 F       1  UNL1       -0.1659
     12 C          62.5821   93.4777   -0.4021 C.ar    1  UNL1        0.0710
     13 C          61.6825   92.7200    0.5288 C.ar    1  UNL1        0.0180
     14 C          62.1686   92.3368    1.8952 C.ar    1  UNL1        0.0220
     15 C          63.5543   92.7111    2.3306 C.ar    1  UNL1        0.0990
     16 N          64.4539   93.4688    1.3996 N.ar    1  UNL1       -0.2410
     17 C          63.9679   93.8520    0.0333 C.ar    1  UNL1        0.1136
     18 C          60.6562   94.2255   -1.9773 C.3     1  UNL1        0.0807
     19 C          60.0927   95.4561   -1.3305 C.3     1  UNL1        0.0416
     20 C          58.6528   95.8208   -1.5393 C.3     1  UNL1        0.0944
     21 N          57.7763   94.9549   -2.3949 N.pl3   1  UNL1       -0.2880
     22 C          58.3397   93.7243   -3.0416 C.3     1  UNL1        0.0944
     23 C          59.7797   93.3596   -2.8328 C.3     1  UNL1        0.0416
     24 C          56.3363   95.3196   -2.6037 C.ar    1  UNL1        0.1631
     25 N          55.2773   95.3717   -1.5426 N.ar    1  UNL1       -0.2225
     26 C          53.9890   95.7805   -2.1933 C.ar    1  UNL1        0.1079
     27 C          54.2519   95.9810   -3.6565 C.ar    1  UNL1        0.0588
     28 S          55.7026   95.6961   -3.9100 S.2     1  UNL1       -0.0509
@<TRIPOS>BOND
     1     8     9    1
     2     9    10    1
     3     9    11    1
     4     9     2    1
     5     2     3   ar
     6     3     4   ar
     7     4     5   ar
     8     5     1    1
     9     1    12    1
    10    12    13   ar
    11    13    14   ar
    12    14    15   ar
    13    15    16   ar
    14    16    17   ar
    15     1    18    1
    16    18    19    1
    17    19    20    1
    18    20    21    1
    19    21    24    1
    20    24    25   ar
    21    25    26   ar
    22    26    27   ar
    23    27    28   ar
    24    21    22    1
    25    22    23    1
    26     5     6   ar
    27     6     7   ar
    28     7     2   ar
    29    17    12   ar
    30    23    18    1
    31    28    24   ar
