@<TRIPOS>MOLECULE
*****
 36 40 0 0 0
SMALL
GASTEIGER

@<TRIPOS>ATOM
      1 N          63.6079   86.8353   13.6143 N.3     1  UNL1       -0.1541
      2 C          63.1253   87.8666   12.6378 C.3     1  UNL1        0.0963
      3 C          63.7048   89.1909   13.0381 C.3     1  UNL1        0.0264
      4 C          64.5455   88.9782   14.2620 C.3     1  UNL1        0.0264
      5 C          64.4857   87.5223   14.6181 C.3     1  UNL1        0.0963
      6 C          64.4162   90.3504   13.6701 C.3     1  UNL1        0.0562
      7 C          65.2764   91.1269   14.6226 C.ar    1  UNL1        0.0600
      8 C          66.7703   91.0705   14.5007 C.ar    1  UNL1        0.0148
      9 C          67.6305   91.8470   15.4531 C.ar    1  UNL1        0.0028
     10 C          66.9965   92.6800   16.5276 C.ar    1  UNL1        0.0207
     11 C          65.5026   92.7364   16.6495 C.ar    1  UNL1        0.0984
     12 N          64.6425   91.9599   15.6971 N.ar    1  UNL1       -0.2481
     13 S          63.2718   85.3736   13.5910 S.O2    1  UNL1        0.0814
     14 O          64.2479   85.1315   14.7040 O.2     1  UNL1       -0.1513
     15 O          62.2957   85.6158   12.4781 O.2     1  UNL1       -0.1513
     16 C          62.8014   80.3532   12.0241 C.3     1  UNL1        0.1321
     17 N          62.7194   81.6044   12.8476 N.ar    1  UNL1       -0.3047
     18 C          62.1175   81.7210   14.2165 C.ar    1  UNL1        0.1800
     19 N          62.2512   83.1472   14.6616 N.ar    1  UNL1       -0.2042
     20 C          62.9357   83.9120   13.5678 C.ar    1  UNL1        0.2217
     21 C          63.2251   82.9585   12.4466 C.ar    1  UNL1        0.1172
     22 C          63.9882   91.4530   12.7475 C.3     1  UNL1        0.0952
     23 N          64.8561   91.8387   11.5865 N.am    1  UNL1       -0.3005
     24 C          65.7843   93.0114   11.7009 C.2     1  UNL1        0.2458
     25 O          65.8446   93.7984   12.9764 O.2     1  UNL1       -0.2701
     26 H          64.8165   91.3221   10.7493 H       1  UNL1        0.1498
     27 C          66.6522   93.3971   10.5398 C.ar    1  UNL1        0.0573
     28 C          67.5361   92.3733    9.8914 C.ar    1  UNL1        0.0045
     29 C          68.4040   92.7590    8.7304 C.ar    1  UNL1        0.0001
     30 C          68.3879   94.1686    8.2177 C.ar    1  UNL1       -0.0001
     31 C          67.5040   95.1924    8.8662 C.ar    1  UNL1        0.0040
     32 C          66.6362   94.8067   10.0272 C.ar    1  UNL1        0.0758
     33 C          65.7522   95.8306   10.6756 C.3     1  UNL1        0.4187
     34 F          64.8684   96.8545   11.3241 F       1  UNL1       -0.1659
     35 F          66.9103   96.3072   11.5013 F       1  UNL1       -0.1659
     36 F          64.5943   95.3538    9.8499 F       1  UNL1       -0.1659
@<TRIPOS>BOND
     1    16    17    1
     2    17    18   ar
     3    18    19   ar
     4    19    20   ar
     5    20    13    1
     6    13    14    2
     7    13    15    2
     8    13     1    1
     9     1     2    1
    10     3     2    1
    11     3     4    1
    12     4     5    1
    13     4     6    1
    14     6    22    1
    15    22    23    1
    16    23    24   am
    17    24    25    2
    18    24    27    1
    19    27    28   ar
    20    28    29   ar
    21    29    30   ar
    22    30    31   ar
    23    31    32   ar
    24    32    33    1
    25    33    34    1
    26    33    35    1
    27    33    36    1
    28     6     7    1
    29     7     8   ar
    30     8     9   ar
    31     9    10   ar
    32    10    11   ar
    33    11    12   ar
    34    20    21   ar
    35    21    17   ar
    36     5     1    1
    37    32    27   ar
    38    12     7   ar
    39     6     3    1
    40    23    26    1
@<TRIPOS>MOLECULE
*****
 36 40 0 0 0
SMALL
GASTEIGER

@<TRIPOS>ATOM
      1 N          63.2717   89.3493   12.6959 N.3     1  UNL1       -0.1541
      2 C          63.5471   87.8928   12.4658 C.3     1  UNL1        0.0963
      3 C          62.6971   87.4363   11.3173 C.3     1  UNL1        0.0264
      4 C          61.8965   88.6105   10.8375 C.3     1  UNL1        0.0264
      5 C          62.2516   89.7928   11.6896 C.3     1  UNL1        0.0963
      6 C          61.7482   87.2772   10.1665 C.3     1  UNL1        0.0562
      7 C          60.7276   87.6228    9.1230 C.ar    1  UNL1        0.0600
      8 C          59.8963   86.5411    8.4995 C.ar    1  UNL1        0.0148
      9 C          58.8758   86.8867    7.4560 C.ar    1  UNL1        0.0028
     10 C          58.6866   88.3143    7.0359 C.ar    1  UNL1        0.0207
     11 C          59.5179   89.3960    7.6594 C.ar    1  UNL1        0.0984
     12 N          60.5384   89.0503    8.7029 N.ar    1  UNL1       -0.2481
     13 S          63.9052   90.2109   13.7476 S.O2    1  UNL1        0.0814
     14 O          64.2503   91.2314   12.7038 O.2     1  UNL1       -0.1513
     15 O          63.5601   89.1905   14.7915 O.2     1  UNL1       -0.1513
     16 C          67.4161   93.1169   16.4142 C.3     1  UNL1        0.1321
     17 N          66.1525   92.4083   16.0250 N.ar    1  UNL1       -0.3047
     18 C          64.8748   92.3888   16.8106 C.ar    1  UNL1        0.1800
     19 N          63.8775   91.5633   16.0531 N.ar    1  UNL1       -0.2042
     20 C          64.5387   91.0726   14.7994 C.ar    1  UNL1        0.2217
     21 C          65.9448   91.5948   14.7820 C.ar    1  UNL1        0.1172
     22 C          61.9543   85.8237    9.8580 C.3     1  UNL1        0.0952
     23 N          61.9291   84.8112   10.9644 N.am    1  UNL1       -0.3005
     24 C          62.9832   83.7461   11.0305 C.2     1  UNL1        0.2458
     25 O          64.0625   83.6936    9.9900 O.2     1  UNL1       -0.2701
     26 H          61.2208   84.8458   11.6472 H       1  UNL1        0.1498
     27 C          62.9580   82.7336   12.1369 C.ar    1  UNL1        0.0573
     28 C          62.4900   81.3350   11.8632 C.ar    1  UNL1        0.0045
     29 C          62.4648   80.3225   12.9696 C.ar    1  UNL1        0.0001
     30 C          62.9077   80.7085   14.3498 C.ar    1  UNL1       -0.0001
     31 C          63.3758   82.1071   14.6234 C.ar    1  UNL1        0.0040
     32 C          63.4010   83.1196   13.5170 C.ar    1  UNL1        0.0758
     33 C          63.8690   84.5182   13.7907 C.3     1  UNL1        0.4187
     34 F          64.3372   85.9168   14.0644 F       1  UNL1       -0.1659
     35 F          65.2698   84.1196   13.4317 F       1  UNL1       -0.1659
     36 F          62.4682   84.9168   14.1498 F       1  UNL1       -0.1659
@<TRIPOS>BOND
     1    16    17    1
     2    17    18   ar
     3    18    19   ar
     4    19    20   ar
     5    20    13    1
     6    13    14    2
     7    13    15    2
     8    13     1    1
     9     1     2    1
    10     3     2    1
    11     3     4    1
    12     4     5    1
    13     4     6    1
    14     6    22    1
    15    22    23    1
    16    23    24   am
    17    24    25    2
    18    24    27    1
    19    27    28   ar
    20    28    29   ar
    21    29    30   ar
    22    30    31   ar
    23    31    32   ar
    24    32    33    1
    25    33    34    1
    26    33    35    1
    27    33    36    1
    28     6     7    1
    29     7     8   ar
    30     8     9   ar
    31     9    10   ar
    32    10    11   ar
    33    11    12   ar
    34    20    21   ar
    35    21    17   ar
    36     5     1    1
    37    32    27   ar
    38    12     7   ar
    39     6     3    1
    40    23    26    1
@<TRIPOS>MOLECULE
*****
 36 40 0 0 0
SMALL
GASTEIGER

@<TRIPOS>ATOM
      1 N          63.8019   86.7130   13.6560 N.3     1  UNL1       -0.1541
      2 C          63.2033   87.7117   12.7104 C.3     1  UNL1        0.0963
      3 C          63.7238   89.0692   13.0796 C.3     1  UNL1        0.0264
      4 C          64.6441   88.9094   14.2533 C.3     1  UNL1        0.0264
      5 C          64.6923   87.4532   14.6095 C.3     1  UNL1        0.0963
      6 C          64.3989   90.2704   13.6723 C.3     1  UNL1        0.0562
      7 C          65.2635   91.0989   14.5758 C.ar    1  UNL1        0.0600
      8 C          66.7520   91.1058   14.3903 C.ar    1  UNL1        0.0148
      9 C          67.6165   91.9342   15.2937 C.ar    1  UNL1        0.0028
     10 C          66.9925   92.7557   16.3828 C.ar    1  UNL1        0.0207
     11 C          65.5041   92.7488   16.5682 C.ar    1  UNL1        0.0984
     12 N          64.6396   91.9204   15.6647 N.ar    1  UNL1       -0.2481
     13 S          63.5536   85.2337   13.6492 S.O2    1  UNL1        0.0814
     14 O          64.7871   85.0229   14.4764 O.2     1  UNL1       -0.1513
     15 O          62.3201   85.4444   12.8221 O.2     1  UNL1       -0.1513
     16 C          61.1945   80.5353   14.1399 C.3     1  UNL1        0.1321
     17 N          62.2210   81.5948   13.8680 N.ar    1  UNL1       -0.3047
     18 C          63.6256   81.3612   13.3962 C.ar    1  UNL1        0.1800
     19 N          64.2957   82.6959   13.2569 N.ar    1  UNL1       -0.2042
     20 C          63.3054   83.7544   13.6425 C.ar    1  UNL1        0.2217
     21 C          62.0231   83.0739   14.0203 C.ar    1  UNL1        0.1172
     22 C          63.8535   91.3437   12.7775 C.3     1  UNL1        0.0952
     23 N          64.7358   92.4749   12.3392 N.am    1  UNL1       -0.3005
     24 C          64.8586   92.8092   10.8822 C.2     1  UNL1        0.2458
     25 O          64.0990   92.0123    9.8633 O.2     1  UNL1       -0.2701
     26 H          65.2344   92.9978   13.0080 H       1  UNL1        0.1498
     27 C          65.7409   93.9403   10.4439 C.ar    1  UNL1        0.0573
     28 C          65.1983   95.3377   10.3910 C.ar    1  UNL1        0.0045
     29 C          66.0806   96.4688    9.9528 C.ar    1  UNL1        0.0001
     30 C          67.5056   96.2025    9.5673 C.ar    1  UNL1       -0.0001
     31 C          68.0482   94.8051    9.6202 C.ar    1  UNL1        0.0040
     32 C          67.1659   93.6740   10.0584 C.ar    1  UNL1        0.0758
     33 C          67.7085   92.2766   10.1113 C.3     1  UNL1        0.4187
     34 F          68.2511   90.8791   10.1642 F       1  UNL1       -0.1659
     35 F          67.5944   92.2889   11.6069 F       1  UNL1       -0.1659
     36 F          67.8226   92.2643    8.6157 F       1  UNL1       -0.1659
@<TRIPOS>BOND
     1    16    17    1
     2    17    18   ar
     3    18    19   ar
     4    19    20   ar
     5    20    13    1
     6    13    14    2
     7    13    15    2
     8    13     1    1
     9     1     2    1
    10     3     2    1
    11     3     4    1
    12     4     5    1
    13     4     6    1
    14     6    22    1
    15    22    23    1
    16    23    24   am
    17    24    25    2
    18    24    27    1
    19    27    28   ar
    20    28    29   ar
    21    29    30   ar
    22    30    31   ar
    23    31    32   ar
    24    32    33    1
    25    33    34    1
    26    33    35    1
    27    33    36    1
    28     6     7    1
    29     7     8   ar
    30     8     9   ar
    31     9    10   ar
    32    10    11   ar
    33    11    12   ar
    34    20    21   ar
    35    21    17   ar
    36     5     1    1
    37    32    27   ar
    38    12     7   ar
    39     6     3    1
    40    23    26    1
@<TRIPOS>MOLECULE
*****
 36 40 0 0 0
SMALL
GASTEIGER

@<TRIPOS>ATOM
      1 N          63.5638   86.0070   13.4605 N.3     1  UNL1       -0.1541
      2 C          63.0787   86.8492   12.3180 C.3     1  UNL1        0.0963
      3 C          63.3973   88.2814   12.6301 C.3     1  UNL1        0.0264
      4 C          64.0793   88.3243   13.9654 C.3     1  UNL1        0.0264
      5 C          64.1822   86.9186   14.4786 C.3     1  UNL1        0.0963
      6 C          63.8365   89.5949   13.2061 C.3     1  UNL1        0.0562
      7 C          64.4319   90.5867   14.1610 C.ar    1  UNL1        0.0600
      8 C          65.7639   91.2086   13.8628 C.ar    1  UNL1        0.0148
      9 C          66.3593   92.2004   14.8177 C.ar    1  UNL1        0.0028
     10 C          65.6224   92.5704   16.0709 C.ar    1  UNL1        0.0207
     11 C          64.2905   91.9485   16.3690 C.ar    1  UNL1        0.0984
     12 N          63.6952   90.9567   15.4142 N.ar    1  UNL1       -0.2481
     13 S          63.4505   84.5150   13.5664 S.O2    1  UNL1        0.0814
     14 O          62.3421   84.6701   14.5652 O.2     1  UNL1       -0.1513
     15 O          64.5588   84.3599   12.5676 O.2     1  UNL1       -0.1513
     16 C          62.5250   79.4526   12.3843 C.3     1  UNL1        0.1321
     17 N          62.9117   80.6962   13.1289 N.ar    1  UNL1       -0.3047
     18 C          63.4134   80.7582   14.5411 C.ar    1  UNL1        0.1800
     19 N          63.6763   82.1963   14.8768 N.ar    1  UNL1       -0.2042
     20 C          63.3371   83.0230   13.6722 C.ar    1  UNL1        0.2217
     21 C          62.8645   82.0959   12.5918 C.ar    1  UNL1        0.1172
     22 C          63.3870   90.5211   12.1152 C.3     1  UNL1        0.0952
     23 N          62.7464   89.9668   10.8773 N.am    1  UNL1       -0.3005
     24 C          61.2585   89.7861   10.8192 C.2     1  UNL1        0.2458
     25 O          60.4111   90.1597   11.9992 O.2     1  UNL1       -0.2701
     26 H          63.3026   89.7215   10.1028 H       1  UNL1        0.1498
     27 C          60.6180   89.2317    9.5814 C.ar    1  UNL1        0.0573
     28 C          60.2820   90.1431    8.4383 C.ar    1  UNL1        0.0045
     29 C          59.6414   89.5887    7.2004 C.ar    1  UNL1        0.0001
     30 C          59.3369   88.1230    7.1055 C.ar    1  UNL1       -0.0001
     31 C          59.6728   87.2117    8.2486 C.ar    1  UNL1        0.0040
     32 C          60.3134   87.7660    9.4865 C.ar    1  UNL1        0.0758
     33 C          60.6494   86.8547   10.6296 C.3     1  UNL1        0.4187
     34 F          60.9854   85.9433   11.7726 F       1  UNL1       -0.1659
     35 F          61.6004   86.1003    9.7485 F       1  UNL1       -0.1659
     36 F          59.6983   87.6092   11.5107 F       1  UNL1       -0.1659
@<TRIPOS>BOND
     1    16    17    1
     2    17    18   ar
     3    18    19   ar
     4    19    20   ar
     5    20    13    1
     6    13    14    2
     7    13    15    2
     8    13     1    1
     9     1     2    1
    10     3     2    1
    11     3     4    1
    12     4     5    1
    13     4     6    1
    14     6    22    1
    15    22    23    1
    16    23    24   am
    17    24    25    2
    18    24    27    1
    19    27    28   ar
    20    28    29   ar
    21    29    30   ar
    22    30    31   ar
    23    31    32   ar
    24    32    33    1
    25    33    34    1
    26    33    35    1
    27    33    36    1
    28     6     7    1
    29     7     8   ar
    30     8     9   ar
    31     9    10   ar
    32    10    11   ar
    33    11    12   ar
    34    20    21   ar
    35    21    17   ar
    36     5     1    1
    37    32    27   ar
    38    12     7   ar
    39     6     3    1
    40    23    26    1
@<TRIPOS>MOLECULE
*****
 36 40 0 0 0
SMALL
GASTEIGER

@<TRIPOS>ATOM
      1 N          64.9179   92.2007   11.9052 N.3     1  UNL1       -0.1541
      2 C          64.1493   91.1532   11.1555 C.3     1  UNL1        0.0963
      3 C          63.6910   90.1200   12.1417 C.3     1  UNL1        0.0264
      4 C          64.1764   90.5289   13.5008 C.3     1  UNL1        0.0264
      5 C          64.9347   91.8149   13.3546 C.3     1  UNL1        0.0963
      6 C          63.3799   89.2685   13.3367 C.3     1  UNL1        0.0562
      7 C          63.3406   88.7981   14.7605 C.ar    1  UNL1        0.0600
      8 C          63.0360   89.7685   15.8629 C.ar    1  UNL1        0.0148
      9 C          62.9968   89.2981   17.2867 C.ar    1  UNL1        0.0028
     10 C          63.2621   87.8570   17.6080 C.ar    1  UNL1        0.0207
     11 C          63.5667   86.8866   16.5055 C.ar    1  UNL1        0.0984
     12 N          63.6059   87.3571   15.0818 N.ar    1  UNL1       -0.2481
     13 S          65.5575   93.4200   11.3100 S.O2    1  UNL1        0.0814
     14 O          65.0157   93.0462    9.9621 O.2     1  UNL1       -0.1513
     15 O          66.0992   93.7938   12.6579 O.2     1  UNL1       -0.1513
     16 C          67.7578   96.7616    7.8642 C.3     1  UNL1        0.1321
     17 N          67.2084   96.1752    9.1309 N.ar    1  UNL1       -0.3047
     18 C          67.1540   96.8558   10.4666 C.ar    1  UNL1        0.1800
     19 N          66.5290   95.9065   11.4453 N.ar    1  UNL1       -0.2042
     20 C          66.1970   94.6393   10.7147 C.ar    1  UNL1        0.2217
     21 C          66.6169   94.8053    9.2843 C.ar    1  UNL1        0.1172
     22 C          62.5969   88.1715   12.6782 C.3     1  UNL1        0.0952
     23 N          63.2284   86.8295   12.4546 N.am    1  UNL1       -0.3005
     24 C          62.4785   85.7615   11.7151 C.2     1  UNL1        0.2458
     25 O          61.0970   86.0357   11.1990 O.2     1  UNL1       -0.2701
     26 H          64.1352   86.6496   12.7934 H       1  UNL1        0.1498
     27 C          63.1101   84.4194   11.4915 C.ar    1  UNL1        0.0573
     28 C          63.5578   84.0208   10.1165 C.ar    1  UNL1        0.0045
     29 C          64.1893   82.6787    9.8930 C.ar    1  UNL1        0.0001
     30 C          64.3731   81.7352   11.0445 C.ar    1  UNL1       -0.0001
     31 C          63.9254   82.1338   12.4195 C.ar    1  UNL1        0.0040
     32 C          63.2939   83.4759   12.6431 C.ar    1  UNL1        0.0758
     33 C          62.8461   83.8745   14.0181 C.3     1  UNL1        0.4187
     34 F          62.3985   84.2731   15.3931 F       1  UNL1       -0.1659
     35 F          64.1721   84.5333   14.2587 F       1  UNL1       -0.1659
     36 F          61.5203   83.2156   13.7774 F       1  UNL1       -0.1659
@<TRIPOS>BOND
     1    16    17    1
     2    17    18   ar
     3    18    19   ar
     4    19    20   ar
     5    20    13    1
     6    13    14    2
     7    13    15    2
     8    13     1    1
     9     1     2    1
    10     3     2    1
    11     3     4    1
    12     4     5    1
    13     4     6    1
    14     6    22    1
    15    22    23    1
    16    23    24   am
    17    24    25    2
    18    24    27    1
    19    27    28   ar
    20    28    29   ar
    21    29    30   ar
    22    30    31   ar
    23    31    32   ar
    24    32    33    1
    25    33    34    1
    26    33    35    1
    27    33    36    1
    28     6     7    1
    29     7     8   ar
    30     8     9   ar
    31     9    10   ar
    32    10    11   ar
    33    11    12   ar
    34    20    21   ar
    35    21    17   ar
    36     5     1    1
    37    32    27   ar
    38    12     7   ar
    39     6     3    1
    40    23    26    1
@<TRIPOS>MOLECULE
*****
 36 40 0 0 0
SMALL
GASTEIGER

@<TRIPOS>ATOM
      1 N          60.9350   87.4120    9.1971 N.3     1  UNL1       -0.1541
      2 C          61.6668   87.8726   10.4228 C.3     1  UNL1        0.0963
      3 C          62.2255   86.6627   11.1111 C.3     1  UNL1        0.0264
      4 C          61.8391   85.4543   10.3109 C.3     1  UNL1        0.0264
      5 C          61.0415   85.9174    9.1279 C.3     1  UNL1        0.0963
      6 C          62.6498   85.2968   11.5630 C.3     1  UNL1        0.0562
      7 C          62.8122   83.8057   11.5823 C.ar    1  UNL1        0.0600
      8 C          63.4334   83.1037   10.4113 C.ar    1  UNL1        0.0148
      9 C          63.5957   81.6126   10.4306 C.ar    1  UNL1        0.0028
     10 C          63.1368   80.8236   11.6211 C.ar    1  UNL1        0.0207
     11 C          62.5157   81.5257   12.7920 C.ar    1  UNL1        0.0984
     12 N          62.3534   83.0167   12.7727 N.ar    1  UNL1       -0.2481
     13 S          60.2220   88.2915    8.2132 S.O2    1  UNL1        0.0814
     14 O          60.7127   89.5064    8.9436 O.2     1  UNL1       -0.1513
     15 O          59.7312   87.0767    7.4829 O.2     1  UNL1       -0.1513
     16 C          59.2384   91.9966    4.5820 C.3     1  UNL1        0.1321
     17 N          59.0568   90.8741    5.5603 N.ar    1  UNL1       -0.3047
     18 C          57.7664   90.1750    5.8706 C.ar    1  UNL1        0.1800
     19 N          58.0459   89.1226    6.9021 N.ar    1  UNL1       -0.2042
     20 C          59.5089   89.1711    7.2294 C.ar    1  UNL1        0.2217
     21 C          60.1337   90.2536    6.4001 C.ar    1  UNL1        0.1172
     22 C          63.4042   85.6571   12.8085 C.3     1  UNL1        0.0952
     23 N          63.3933   87.0710   13.3093 N.am    1  UNL1       -0.3005
     24 C          64.2818   87.4694   14.4503 C.2     1  UNL1        0.2458
     25 O          65.1812   86.4538   15.0904 O.2     1  UNL1       -0.2701
     26 H          62.8031   87.7375   12.8891 H       1  UNL1        0.1498
     27 C          64.2709   88.8833   14.9511 C.ar    1  UNL1        0.0573
     28 C          65.1308   89.9196   14.2904 C.ar    1  UNL1        0.0045
     29 C          65.1200   91.3335   14.7912 C.ar    1  UNL1        0.0001
     30 C          64.2492   91.7111   15.9528 C.ar    1  UNL1       -0.0001
     31 C          63.3893   90.6747   16.6135 C.ar    1  UNL1        0.0040
     32 C          63.4001   89.2608   16.1127 C.ar    1  UNL1        0.0758
     33 C          62.5402   88.2244   16.7734 C.3     1  UNL1        0.4187
     34 F          61.6803   87.1881   17.4341 F       1  UNL1       -0.1659
     35 F          61.3122   88.9163   16.2602 F       1  UNL1       -0.1659
     36 F          63.7683   87.5326   17.2865 F       1  UNL1       -0.1659
@<TRIPOS>BOND
     1    16    17    1
     2    17    18   ar
     3    18    19   ar
     4    19    20   ar
     5    20    13    1
     6    13    14    2
     7    13    15    2
     8    13     1    1
     9     1     2    1
    10     3     2    1
    11     3     4    1
    12     4     5    1
    13     4     6    1
    14     6    22    1
    15    22    23    1
    16    23    24   am
    17    24    25    2
    18    24    27    1
    19    27    28   ar
    20    28    29   ar
    21    29    30   ar
    22    30    31   ar
    23    31    32   ar
    24    32    33    1
    25    33    34    1
    26    33    35    1
    27    33    36    1
    28     6     7    1
    29     7     8   ar
    30     8     9   ar
    31     9    10   ar
    32    10    11   ar
    33    11    12   ar
    34    20    21   ar
    35    21    17   ar
    36     5     1    1
    37    32    27   ar
    38    12     7   ar
    39     6     3    1
    40    23    26    1
@<TRIPOS>MOLECULE
*****
 36 40 0 0 0
SMALL
GASTEIGER

@<TRIPOS>ATOM
      1 N          61.8871   89.1972   10.8603 N.3     1  UNL1       -0.1541
      2 C          62.3495   87.9807   11.6062 C.3     1  UNL1        0.0963
      3 C          63.1950   88.4368   12.7581 C.3     1  UNL1        0.0264
      4 C          63.2552   89.9352   12.7242 C.3     1  UNL1        0.0264
      5 C          62.4469   90.4052   11.5513 C.3     1  UNL1        0.0963
      6 C          63.9781   89.1797   13.7997 C.3     1  UNL1        0.0562
      7 C          64.5831   90.3229   14.5593 C.ar    1  UNL1        0.0600
      8 C          65.9523   90.8202   14.2015 C.ar    1  UNL1        0.0148
      9 C          66.5573   91.9634   14.9611 C.ar    1  UNL1        0.0028
     10 C          65.7930   92.6093   16.0787 C.ar    1  UNL1        0.0207
     11 C          64.4239   92.1119   16.4365 C.ar    1  UNL1        0.0984
     12 N          63.8190   90.9688   15.6769 N.ar    1  UNL1       -0.2481
     13 S          61.0176   89.2045    9.6381 S.O2    1  UNL1        0.0814
     14 O          60.3707   90.4745   10.1058 O.2     1  UNL1       -0.1513
     15 O          61.6645   87.9346    9.1703 O.2     1  UNL1       -0.1513
     16 C          58.5318   90.7769    5.2529 C.3     1  UNL1        0.1321
     17 N          59.0055   89.9346    6.4002 N.ar    1  UNL1       -0.3047
     18 C          58.6147   88.5117    6.6697 C.ar    1  UNL1        0.1800
     19 N          59.3209   88.0651    7.9154 N.ar    1  UNL1       -0.2042
     20 C          60.1481   89.2118    8.4158 C.ar    1  UNL1        0.2217
     21 C          59.9532   90.3673    7.4794 C.ar    1  UNL1        0.1172
     22 C          64.4909   88.0272   14.6113 C.3     1  UNL1        0.0952
     23 N          63.8849   86.6650   14.4460 N.am    1  UNL1       -0.3005
     24 C          64.7657   85.4514   14.4118 C.2     1  UNL1        0.2458
     25 O          66.2526   85.5999   14.5429 O.2     1  UNL1       -0.2701
     26 H          62.9090   86.5676   14.3599 H       1  UNL1        0.1498
     27 C          64.1597   84.0892   14.2465 C.ar    1  UNL1        0.0573
     28 C          64.7315   83.1306   13.2444 C.ar    1  UNL1        0.0045
     29 C          64.1255   81.7684   13.0791 C.ar    1  UNL1        0.0001
     30 C          62.9477   81.3649   13.9158 C.ar    1  UNL1       -0.0001
     31 C          62.3760   82.3236   14.9179 C.ar    1  UNL1        0.0040
     32 C          62.9820   83.6857   15.0832 C.ar    1  UNL1        0.0758
     33 C          62.4103   84.6444   16.0853 C.3     1  UNL1        0.4187
     34 F          61.8385   85.6031   17.0873 F       1  UNL1       -0.1659
     35 F          61.1209   84.6758   15.3194 F       1  UNL1       -0.1659
     36 F          63.6997   84.6129   16.8511 F       1  UNL1       -0.1659
@<TRIPOS>BOND
     1    16    17    1
     2    17    18   ar
     3    18    19   ar
     4    19    20   ar
     5    20    13    1
     6    13    14    2
     7    13    15    2
     8    13     1    1
     9     1     2    1
    10     3     2    1
    11     3     4    1
    12     4     5    1
    13     4     6    1
    14     6    22    1
    15    22    23    1
    16    23    24   am
    17    24    25    2
    18    24    27    1
    19    27    28   ar
    20    28    29   ar
    21    29    30   ar
    22    30    31   ar
    23    31    32   ar
    24    32    33    1
    25    33    34    1
    26    33    35    1
    27    33    36    1
    28     6     7    1
    29     7     8   ar
    30     8     9   ar
    31     9    10   ar
    32    10    11   ar
    33    11    12   ar
    34    20    21   ar
    35    21    17   ar
    36     5     1    1
    37    32    27   ar
    38    12     7   ar
    39     6     3    1
    40    23    26    1
