@<TRIPOS>MOLECULE
*****
 55 62 0 0 0
SMALL
GASTEIGER

@<TRIPOS>ATOM
      1 C          61.1825   88.5706    9.1260 C.2     1  UNL1        0.1542
      2 N          60.4365   89.6722    8.4333 N.2     1  UNL1       -0.0655
      3 C          59.5587   89.3598    7.2577 C.cat   1  UNL1        0.4642
      4 N          59.4270   87.9458    6.7748 N.2     1  UNL1        0.0296
      5 C          60.1730   86.8442    7.4676 C.2     1  UNL1        0.3685
      6 N          60.2391   85.3663    7.2195 N.2     1  UNL1       -0.0340
      7 C          61.1577   84.7653    8.2418 C.2     1  UNL1        0.2321
      8 C          61.6594   85.8718    9.1216 C.2     1  UNL1        0.0439
      9 C          61.0508   87.1566    8.6431 C.3     1  UNL1        0.1946
     10 N          65.0611   90.5891   13.8679 N.am    1  UNL1       -0.2526
     11 C          64.8017   89.2210   14.4252 C.3     1  UNL1        0.1229
     12 C          63.9118   88.2662   13.6858 C.3     1  UNL1        0.1280
     13 N          63.2813   88.6797   12.3891 N.ar    1  UNL1       -0.3206
     14 C          62.3664   87.9597   11.4434 C.ar    1  UNL1        0.0787
     15 C          62.0603   88.8830   10.3015 C.ar    1  UNL1        0.0498
     16 C          62.7861   90.1736   10.5416 C.ar    1  UNL1        0.0259
     17 C          63.5407   90.0480   11.8318 C.ar    1  UNL1        0.1147
     18 C          64.4306   91.0027   12.5712 C.2     1  UNL1        0.2687
     19 O          64.6900   92.3709   12.0139 O.2     1  UNL1       -0.2680
     20 C          67.3305   91.8333   14.0947 C.ar    1  UNL1       -0.0088
     21 C          68.2204   92.7881   14.8341 C.ar    1  UNL1       -0.0031
     22 C          67.7305   93.4535   16.0860 C.ar    1  UNL1       -0.0006
     23 C          66.3508   93.1640   16.5985 C.ar    1  UNL1       -0.0031
     24 C          65.4610   92.2093   15.8592 C.ar    1  UNL1       -0.0088
     25 C          65.9509   91.5439   14.6073 C.ar    1  UNL1        0.0462
     26 C          68.0928   91.9866   11.6156 C.3     1  UNL1        0.0051
     27 C          67.8204   91.1680   12.8428 C.3     1  UNL1        0.0276
     28 C          64.0813   91.9199   16.3718 C.3     1  UNL1        0.0276
     29 C          63.7215   90.5328   16.8151 C.3     1  UNL1        0.0051
     30 N          58.8127   90.4615    6.5651 N.pl3   1  UNL1       -0.1896
     31 H          57.9206   90.7286    6.8846 H       1  UNL1        0.2524
     32 C          59.4259   91.1562    5.3855 C.ar    1  UNL1        0.1435
     33 C          60.8733   90.9397    5.0567 C.ar    1  UNL1        0.0356
     34 C          61.4865   91.6345    3.8772 C.ar    1  UNL1        0.0174
     35 C          60.6522   92.5456    3.0263 C.ar    1  UNL1        0.0511
     36 C          59.2048   92.7621    3.3551 C.ar    1  UNL1        0.0541
     37 C          58.5917   92.0673    4.5347 C.ar    1  UNL1        0.1684
     38 N          61.2655   93.2403    1.8468 N.pl3   1  UNL1       -0.3072
     39 C          60.4011   94.0290    0.9082 C.3     1  UNL1        0.0932
     40 C          61.0144   94.7237   -0.2714 C.3     1  UNL1        0.0497
     41 C          62.4919   94.6297   -0.5123 C.3     1  UNL1        0.1063
     42 O          62.0926   95.4894   -1.6748 O.3     1  UNL1       -0.3853
     43 C          63.3562   93.8410    0.4263 C.3     1  UNL1        0.0497
     44 C          62.7430   93.1463    1.6059 C.3     1  UNL1        0.0932
     45 H          61.1347   95.6405   -1.6513 H       1  UNL1        0.2103
     46 C          63.8308   94.8343   -1.1570 C.3     1  UNL1        0.0994
     47 N          64.0578   94.3900   -2.5716 N.3     1  UNL1       -0.2683
     48 C          64.6776   95.3301   -3.5626 C.3     1  UNL1        0.0897
     49 C          64.9047   94.8858   -4.9772 C.3     1  UNL1        0.0897
     50 N          64.5120   93.5014   -5.4008 N.3     1  UNL1       -0.2691
     51 C          64.7391   93.0572   -6.8154 C.3     1  UNL1        0.0897
     52 C          63.8922   92.5614   -4.4098 C.3     1  UNL1        0.0897
     53 C          63.6652   93.0057   -2.9952 C.3     1  UNL1        0.0897
     54 O          57.1442   92.2837    4.8634 O.3     1  UNL1       -0.4687
     55 C          56.2099   91.1129    4.9431 C.3     1  UNL1        0.2526
@<TRIPOS>BOND
     1    26    27    1
     2    27    20    1
     3    20    21   ar
     4    21    22   ar
     5    22    23   ar
     6    23    24   ar
     7    24    28    1
     8    28    29    1
     9    24    25   ar
    10    25    10    1
    11    10    11    1
    12    11    12    1
    13    12    13    1
    14    13    14   ar
    15    14    15   ar
    16    15     1    1
    17     1     2    2
    18     2     3    1
    19     3    30    1
    20    30    32    1
    21    32    33   ar
    22    33    34   ar
    23    34    35   ar
    24    35    38    1
    25    38    39    1
    26    39    40    1
    27    40    41    1
    28    41    42    1
    29    41    46    1
    30    46    47    1
    31    47    48    1
    32    48    49    1
    33    49    50    1
    34    50    51    1
    35    50    52    1
    36    52    53    1
    37    41    43    1
    38    43    44    1
    39    35    36   ar
    40    36    37   ar
    41    37    54    1
    42    54    55    1
    43     3     4    2
    44     4     5    1
    45     5     6    2
    46     6     7    1
    47     7     8    2
    48     8     9    1
    49    15    16   ar
    50    16    17   ar
    51    17    18    1
    52    18    19    2
    53    25    20   ar
    54    18    10   am
    55    17    13   ar
    56     9     1    1
    57    37    32   ar
    58     9     5    1
    59    44    38    1
    60    53    47    1
    61    30    31    1
    62    42    45    1
@<TRIPOS>MOLECULE
*****
 55 62 0 0 0
SMALL
GASTEIGER

@<TRIPOS>ATOM
      1 C          61.1376   88.5580    9.0568 C.2     1  UNL1        0.1542
      2 N          60.4063   89.6640    8.3555 N.2     1  UNL1       -0.0655
      3 C          59.5298   89.3550    7.1780 C.cat   1  UNL1        0.4642
      4 N          59.3847   87.9400    6.7019 N.2     1  UNL1        0.0296
      5 C          60.1161   86.8341    7.4032 C.2     1  UNL1        0.3685
      6 N          60.1672   85.3542    7.1631 N.2     1  UNL1       -0.0340
      7 C          61.0752   84.7487    8.1921 C.2     1  UNL1        0.2321
      8 C          61.5853   85.8542    9.0682 C.2     1  UNL1        0.0439
      9 C          60.9926   87.1430    8.5807 C.3     1  UNL1        0.1946
     10 N          65.0003   90.5673   13.8156 N.am    1  UNL1       -0.2526
     11 C          64.7612   89.1885   14.3554 C.3     1  UNL1        0.1229
     12 C          63.8827   88.2313   13.6057 C.3     1  UNL1        0.1280
     13 N          63.2432   88.6531   12.3161 N.ar    1  UNL1       -0.3206
     14 C          62.3358   87.9331   11.3631 C.ar    1  UNL1        0.0787
     15 C          62.0141   88.8670   10.2343 C.ar    1  UNL1        0.0498
     16 C          62.7226   90.1642   10.4896 C.ar    1  UNL1        0.0259
     17 C          63.4823   90.0321   11.7762 C.ar    1  UNL1        0.1147
     18 C          64.3608   90.9891   12.5260 C.2     1  UNL1        0.2687
     19 O          64.5999   92.3681   11.9861 O.2     1  UNL1       -0.2680
     20 C          65.3917   92.1495   15.8388 C.ar    1  UNL1       -0.0088
     21 C          66.2702   93.1067   16.5886 C.ar    1  UNL1       -0.0031
     22 C          67.6360   93.4387   16.0647 C.ar    1  UNL1       -0.0006
     23 C          68.1231   92.8136   14.7911 C.ar    1  UNL1       -0.0031
     24 C          67.2446   91.8565   14.0415 C.ar    1  UNL1       -0.0088
     25 C          65.8788   91.5245   14.5654 C.ar    1  UNL1        0.0462
     26 C          63.7145   90.4210   16.8135 C.3     1  UNL1        0.0051
     27 C          64.0259   91.8174   16.3627 C.3     1  UNL1        0.0276
     28 C          67.7318   91.2315   12.7679 C.3     1  UNL1        0.0276
     29 C          67.9629   92.0831   11.5549 C.3     1  UNL1        0.0051
     30 N          58.7985   90.4611    6.4767 N.pl3   1  UNL1       -0.1896
     31 H          57.9024   90.7302    6.7829 H       1  UNL1        0.2524
     32 C          59.4327   91.1570    5.3090 C.ar    1  UNL1        0.1435
     33 C          60.8724   90.9011    4.9750 C.ar    1  UNL1        0.0356
     34 C          61.5066   91.5970    3.8072 C.ar    1  UNL1        0.0174
     35 C          60.7009   92.5489    2.9735 C.ar    1  UNL1        0.0511
     36 C          59.2611   92.8048    3.3076 C.ar    1  UNL1        0.0541
     37 C          58.6271   92.1088    4.4754 C.ar    1  UNL1        0.1684
     38 N          61.3350   93.2449    1.8058 N.pl3   1  UNL1       -0.3072
     39 C          60.4849   94.0172    0.8411 C.3     1  UNL1        0.0932
     40 C          61.1191   94.7132   -0.3266 C.3     1  UNL1        0.0497
     41 C          62.6033   94.6367   -0.5295 C.3     1  UNL1        0.1063
     42 O          62.2228   95.4848   -1.7068 O.3     1  UNL1       -0.3853
     43 C          63.4534   93.8643    0.4352 C.3     1  UNL1        0.0497
     44 C          62.8192   93.1684    1.6030 C.3     1  UNL1        0.0932
     45 H          61.2628   95.6238   -1.7084 H       1  UNL1        0.2103
     46 C          63.9554   94.8548   -1.1413 C.3     1  UNL1        0.0994
     47 N          64.1984   94.4857   -2.5748 N.3     1  UNL1       -0.2683
     48 C          64.7581   95.5016   -3.5262 C.3     1  UNL1        0.0897
     49 C          65.0011   95.1325   -4.9596 C.3     1  UNL1        0.0897
     50 N          64.6845   93.7478   -5.4417 N.3     1  UNL1       -0.2691
     51 C          64.9276   93.3789   -6.8752 C.3     1  UNL1        0.0897
     52 C          64.1249   92.7321   -4.4903 C.3     1  UNL1        0.0897
     53 C          63.8819   93.1011   -3.0569 C.3     1  UNL1        0.0897
     54 O          57.1873   92.3648    4.8094 O.3     1  UNL1       -0.4687
     55 C          56.2054   91.2308    4.8143 C.3     1  UNL1        0.2526
@<TRIPOS>BOND
     1    26    27    1
     2    27    20    1
     3    20    21   ar
     4    21    22   ar
     5    22    23   ar
     6    23    24   ar
     7    24    28    1
     8    28    29    1
     9    24    25   ar
    10    25    10    1
    11    10    11    1
    12    11    12    1
    13    12    13    1
    14    13    14   ar
    15    14    15   ar
    16    15     1    1
    17     1     2    2
    18     2     3    1
    19     3    30    1
    20    30    32    1
    21    32    33   ar
    22    33    34   ar
    23    34    35   ar
    24    35    38    1
    25    38    39    1
    26    39    40    1
    27    40    41    1
    28    41    42    1
    29    41    46    1
    30    46    47    1
    31    47    48    1
    32    48    49    1
    33    49    50    1
    34    50    51    1
    35    50    52    1
    36    52    53    1
    37    41    43    1
    38    43    44    1
    39    35    36   ar
    40    36    37   ar
    41    37    54    1
    42    54    55    1
    43     3     4    2
    44     4     5    1
    45     5     6    2
    46     6     7    1
    47     7     8    2
    48     8     9    1
    49    15    16   ar
    50    16    17   ar
    51    17    18    1
    52    18    19    2
    53    25    20   ar
    54    18    10   am
    55    17    13   ar
    56     9     1    1
    57    37    32   ar
    58     9     5    1
    59    44    38    1
    60    53    47    1
    61    30    31    1
    62    42    45    1
@<TRIPOS>MOLECULE
*****
 55 62 0 0 0
SMALL
GASTEIGER

@<TRIPOS>ATOM
      1 C          61.4693   89.3714    9.2994 C.2     1  UNL1        0.1542
      2 N          60.5932   90.0575    8.2937 N.2     1  UNL1       -0.0655
      3 C          59.5838   89.2670    7.5150 C.cat   1  UNL1        0.4642
      4 N          59.4507   87.7903    7.7420 N.2     1  UNL1        0.0296
      5 C          60.3268   87.1042    8.7478 C.2     1  UNL1        0.3685
      6 N          60.4229   85.6722    9.1841 N.2     1  UNL1       -0.0340
      7 C          61.4916   85.5778   10.2324 C.2     1  UNL1        0.2321
      8 C          62.0560   86.9513   10.4440 C.2     1  UNL1        0.0439
      9 C          61.3362   87.8947    9.5265 C.3     1  UNL1        0.1946
     10 N          65.8025   92.2072   13.1445 N.am    1  UNL1       -0.2526
     11 C          65.7574   93.2881   12.1056 C.3     1  UNL1        0.1229
     12 C          64.8607   93.1440   10.9117 C.3     1  UNL1        0.1280
     13 N          64.0092   91.9189   10.7569 N.ar    1  UNL1       -0.3206
     14 C          63.0354   91.5011    9.6952 C.ar    1  UNL1        0.0787
     15 C          62.4786   90.1619   10.0781 C.ar    1  UNL1        0.0498
     16 C          63.1084   89.7520   11.3763 C.ar    1  UNL1        0.0259
     17 C          64.0544   90.8379   11.7959 C.ar    1  UNL1        0.1147
     18 C          64.9510   90.9821   12.9897 C.2     1  UNL1        0.2687
     19 O          64.9961   89.9011   14.0287 O.2     1  UNL1       -0.2680
     20 C          66.1082   92.4353   15.7145 C.ar    1  UNL1       -0.0088
     21 C          67.0048   92.5794   16.9084 C.ar    1  UNL1       -0.0031
     22 C          68.4925   92.6394   16.7261 C.ar    1  UNL1       -0.0006
     23 C          69.0835   92.5554   15.3500 C.ar    1  UNL1       -0.0031
     24 C          68.1868   92.4113   14.1562 C.ar    1  UNL1       -0.0088
     25 C          66.6992   92.3513   14.3385 C.ar    1  UNL1        0.0462
     26 C          64.0110   91.2937   16.7387 C.3     1  UNL1        0.0051
     27 C          64.6205   92.3753   15.8968 C.3     1  UNL1        0.0276
     28 C          68.7779   92.3273   12.7800 C.3     1  UNL1        0.0276
     29 C          68.7389   91.0319   12.0248 C.3     1  UNL1        0.0051
     30 N          58.7077   89.9532    6.5093 N.pl3   1  UNL1       -0.1896
     31 H          57.7297   89.8520    6.5580 H       1  UNL1        0.2524
     32 C          59.3219   90.7937    5.4293 C.ar    1  UNL1        0.1435
     33 C          60.7545   90.5827    5.0380 C.ar    1  UNL1        0.0356
     34 C          61.3687   91.4232    3.9580 C.ar    1  UNL1        0.0174
     35 C          60.5501   92.4748    3.2692 C.ar    1  UNL1        0.0511
     36 C          59.1175   92.6858    3.6605 C.ar    1  UNL1        0.0541
     37 C          58.5034   91.8453    4.7405 C.ar    1  UNL1        0.1684
     38 N          61.1643   93.3153    2.1892 N.pl3   1  UNL1       -0.3072
     39 C          60.3054   94.2407    1.3793 C.3     1  UNL1        0.0932
     40 C          60.9196   95.0812    0.2993 C.3     1  UNL1        0.0497
     41 C          62.3926   94.9962    0.0293 C.3     1  UNL1        0.1063
     42 O          61.9977   96.0150   -0.9984 O.3     1  UNL1       -0.3853
     43 C          63.2515   94.0708    0.8392 C.3     1  UNL1        0.0497
     44 C          62.6373   93.2303    1.9192 C.3     1  UNL1        0.0932
     45 H          61.0431   96.1777   -0.9422 H       1  UNL1        0.2103
     46 C          63.7285   95.2651   -0.5977 C.3     1  UNL1        0.0994
     47 N          64.0115   94.7913   -1.9925 N.3     1  UNL1       -0.2683
     48 C          63.5732   93.4228   -2.4231 C.3     1  UNL1        0.0897
     49 C          63.8561   92.9491   -3.8179 C.3     1  UNL1        0.0897
     50 N          64.5772   93.8437   -4.7821 N.3     1  UNL1       -0.2691
     51 C          64.8601   93.3698   -6.1769 C.3     1  UNL1        0.0897
     52 C          65.0155   95.2120   -4.3515 C.3     1  UNL1        0.0897
     53 C          64.7326   95.6858   -2.9567 C.3     1  UNL1        0.0897
     54 O          57.0708   92.0563    5.1317 O.3     1  UNL1       -0.4687
     55 C          56.0889   90.9277    5.0210 C.3     1  UNL1        0.2526
@<TRIPOS>BOND
     1    26    27    1
     2    27    20    1
     3    20    21   ar
     4    21    22   ar
     5    22    23   ar
     6    23    24   ar
     7    24    28    1
     8    28    29    1
     9    24    25   ar
    10    25    10    1
    11    10    11    1
    12    11    12    1
    13    12    13    1
    14    13    14   ar
    15    14    15   ar
    16    15     1    1
    17     1     2    2
    18     2     3    1
    19     3    30    1
    20    30    32    1
    21    32    33   ar
    22    33    34   ar
    23    34    35   ar
    24    35    38    1
    25    38    39    1
    26    39    40    1
    27    40    41    1
    28    41    42    1
    29    41    46    1
    30    46    47    1
    31    47    48    1
    32    48    49    1
    33    49    50    1
    34    50    51    1
    35    50    52    1
    36    52    53    1
    37    41    43    1
    38    43    44    1
    39    35    36   ar
    40    36    37   ar
    41    37    54    1
    42    54    55    1
    43     3     4    2
    44     4     5    1
    45     5     6    2
    46     6     7    1
    47     7     8    2
    48     8     9    1
    49    15    16   ar
    50    16    17   ar
    51    17    18    1
    52    18    19    2
    53    25    20   ar
    54    18    10   am
    55    17    13   ar
    56     9     1    1
    57    37    32   ar
    58     9     5    1
    59    44    38    1
    60    53    47    1
    61    30    31    1
    62    42    45    1
@<TRIPOS>MOLECULE
*****
 55 62 0 0 0
SMALL
GASTEIGER

@<TRIPOS>ATOM
      1 C          61.4690   89.3223    9.3573 C.2     1  UNL1        0.1542
      2 N          60.5875   89.9949    8.3470 N.2     1  UNL1       -0.0655
      3 C          59.5792   89.1926    7.5790 C.cat   1  UNL1        0.4642
      4 N          59.4524   87.7178    7.8213 N.2     1  UNL1        0.0296
      5 C          60.3339   87.0452    8.8317 C.2     1  UNL1        0.3685
      6 N          60.4367   85.6181    9.2822 N.2     1  UNL1       -0.0340
      7 C          61.5084   85.5385   10.3286 C.2     1  UNL1        0.2321
      8 C          62.0681   86.9163   10.5248 C.2     1  UNL1        0.0439
      9 C          61.3422   87.8475    9.5997 C.3     1  UNL1        0.1946
     10 N          65.8067   92.2102   13.1583 N.am    1  UNL1       -0.2526
     11 C          65.7434   93.2872   12.1163 C.3     1  UNL1        0.1229
     12 C          64.8386   93.1310   10.9301 C.3     1  UNL1        0.1280
     13 N          63.9971   91.8977   10.7861 N.ar    1  UNL1       -0.3206
     14 C          63.0186   91.4676    9.7336 C.ar    1  UNL1        0.0787
     15 C          62.4772   90.1246   10.1253 C.ar    1  UNL1        0.0498
     16 C          63.1211   89.7248   11.4198 C.ar    1  UNL1        0.0259
     17 C          64.0604   90.8206   11.8281 C.ar    1  UNL1        0.1147
     18 C          64.9652   90.9769   13.0143 C.2     1  UNL1        0.2687
     19 O          65.0285   89.8998   14.0563 O.2     1  UNL1       -0.2680
     20 C          68.1976   92.4301   14.1510 C.ar    1  UNL1       -0.0088
     21 C          69.1024   92.5864   15.3372 C.ar    1  UNL1       -0.0031
     22 C          68.5210   92.6789   16.7168 C.ar    1  UNL1       -0.0006
     23 C          67.0349   92.6151   16.9103 C.ar    1  UNL1       -0.0031
     24 C          66.1302   92.4589   15.7241 C.ar    1  UNL1       -0.0088
     25 C          66.7115   92.3664   14.3445 C.ar    1  UNL1        0.0462
     26 C          68.7287   91.0393   12.0217 C.3     1  UNL1        0.0051
     27 C          68.7789   92.3377   12.7713 C.3     1  UNL1        0.0276
     28 C          64.6440   92.3952   15.9177 C.3     1  UNL1        0.0276
     29 C          64.0462   91.3322   16.7909 C.3     1  UNL1        0.0051
     30 N          58.6979   89.8652    6.5687 N.pl3   1  UNL1       -0.1896
     31 H          57.7213   89.7488    6.6123 H       1  UNL1        0.2524
     32 C          59.3046   90.7153    5.4920 C.ar    1  UNL1        0.1435
     33 C          60.7359   90.5112    5.0925 C.ar    1  UNL1        0.0356
     34 C          61.3426   91.3612    4.0158 C.ar    1  UNL1        0.0174
     35 C          60.5178   92.4154    3.3384 C.ar    1  UNL1        0.0511
     36 C          59.0865   92.6195    3.7379 C.ar    1  UNL1        0.0541
     37 C          58.4799   91.7694    4.8147 C.ar    1  UNL1        0.1684
     38 N          61.1245   93.2655    2.2617 N.pl3   1  UNL1       -0.3072
     39 C          60.2822   94.2743    1.5387 C.3     1  UNL1        0.0932
     40 C          60.8889   95.1243    0.4619 C.3     1  UNL1        0.0497
     41 C          62.3379   94.9655    0.1082 C.3     1  UNL1        0.1063
     42 O          61.9523   96.0500   -0.8537 O.3     1  UNL1       -0.3853
     43 C          63.1802   93.9566    0.8312 C.3     1  UNL1        0.0497
     44 C          62.5735   93.1066    1.9080 C.3     1  UNL1        0.0932
     45 H          61.0136   96.2655   -0.7386 H       1  UNL1        0.2103
     46 C          63.6530   95.1833   -0.5796 C.3     1  UNL1        0.0994
     47 N          63.8537   94.6990   -1.9850 N.3     1  UNL1       -0.2683
     48 C          64.6149   95.5400   -2.9665 C.3     1  UNL1        0.0897
     49 C          64.8156   95.0557   -4.3720 C.3     1  UNL1        0.0897
     50 N          64.2552   93.7305   -4.7959 N.3     1  UNL1       -0.2691
     51 C          64.4559   93.2462   -6.2013 C.3     1  UNL1        0.0897
     52 C          63.4940   92.8895   -3.8143 C.3     1  UNL1        0.0897
     53 C          63.2933   93.3738   -2.4089 C.3     1  UNL1        0.0897
     54 O          57.0485   91.9735    5.2141 O.3     1  UNL1       -0.4687
     55 C          56.0320   90.9067    4.9333 C.3     1  UNL1        0.2526
@<TRIPOS>BOND
     1    26    27    1
     2    27    20    1
     3    20    21   ar
     4    21    22   ar
     5    22    23   ar
     6    23    24   ar
     7    24    28    1
     8    28    29    1
     9    24    25   ar
    10    25    10    1
    11    10    11    1
    12    11    12    1
    13    12    13    1
    14    13    14   ar
    15    14    15   ar
    16    15     1    1
    17     1     2    2
    18     2     3    1
    19     3    30    1
    20    30    32    1
    21    32    33   ar
    22    33    34   ar
    23    34    35   ar
    24    35    38    1
    25    38    39    1
    26    39    40    1
    27    40    41    1
    28    41    42    1
    29    41    46    1
    30    46    47    1
    31    47    48    1
    32    48    49    1
    33    49    50    1
    34    50    51    1
    35    50    52    1
    36    52    53    1
    37    41    43    1
    38    43    44    1
    39    35    36   ar
    40    36    37   ar
    41    37    54    1
    42    54    55    1
    43     3     4    2
    44     4     5    1
    45     5     6    2
    46     6     7    1
    47     7     8    2
    48     8     9    1
    49    15    16   ar
    50    16    17   ar
    51    17    18    1
    52    18    19    2
    53    25    20   ar
    54    18    10   am
    55    17    13   ar
    56     9     1    1
    57    37    32   ar
    58     9     5    1
    59    44    38    1
    60    53    47    1
    61    30    31    1
    62    42    45    1
@<TRIPOS>MOLECULE
*****
 55 62 0 0 0
SMALL
GASTEIGER

@<TRIPOS>ATOM
      1 C          61.3743   89.2662    9.3420 C.2     1  UNL1        0.1542
      2 N          60.5123   89.9635    8.3318 N.2     1  UNL1       -0.0655
      3 C          59.4871   89.1887    7.5580 C.cat   1  UNL1        0.4642
      4 N          59.3239   87.7165    7.7946 N.2     1  UNL1        0.0296
      5 C          60.1860   87.0192    8.8048 C.2     1  UNL1        0.3685
      6 N          60.2529   85.5884    9.2504 N.2     1  UNL1       -0.0340
      7 C          61.3195   85.4790   10.2994 C.2     1  UNL1        0.2321
      8 C          61.9117   86.8421   10.5023 C.2     1  UNL1        0.0439
      9 C          61.2112   87.7940    9.5786 C.3     1  UNL1        0.1946
     10 N          65.7943   92.0196   13.1481 N.am    1  UNL1       -0.2526
     11 C          65.7112   93.1314   12.1447 C.3     1  UNL1        0.1229
     12 C          64.7818   93.0163   10.9729 C.3     1  UNL1        0.1280
     13 N          63.9355   91.7894   10.8046 N.ar    1  UNL1       -0.3206
     14 C          62.9349   91.3960    9.7587 C.ar    1  UNL1        0.0787
     15 C          62.3995   90.0411   10.1157 C.ar    1  UNL1        0.0498
     16 C          63.0693   89.5970   11.3823 C.ar    1  UNL1        0.0259
     17 C          64.0186   90.6775   11.8080 C.ar    1  UNL1        0.1147
     18 C          64.9480   90.7926   12.9798 C.2     1  UNL1        0.2687
     19 O          65.0311   89.6807   13.9832 O.2     1  UNL1       -0.2680
     20 C          66.1790   92.4527   15.6808 C.ar    1  UNL1       -0.0088
     21 C          67.1084   92.5677   16.8526 C.ar    1  UNL1       -0.0031
     22 C          68.5825   92.3647   16.6634 C.ar    1  UNL1       -0.0006
     23 C          69.1271   92.0467   15.3024 C.ar    1  UNL1       -0.0031
     24 C          68.1977   91.9316   14.1307 C.ar    1  UNL1       -0.0088
     25 C          66.7237   92.1346   14.3199 C.ar    1  UNL1        0.0462
     26 C          63.8745   91.5785   16.5027 C.3     1  UNL1        0.0051
     27 C          64.7049   92.6557   15.8700 C.3     1  UNL1        0.0276
     28 C          68.7425   91.6136   12.7698 C.3     1  UNL1        0.0276
     29 C          68.4371   92.5147   11.6102 C.3     1  UNL1        0.0051
     30 N          58.6251   89.8861    6.5478 N.pl3   1  UNL1       -0.1896
     31 H          57.6466   89.7834    6.5809 H       1  UNL1        0.2524
     32 C          59.2542   90.7402    5.4872 C.ar    1  UNL1        0.1435
     33 C          60.7004   90.5548    5.1349 C.ar    1  UNL1        0.0356
     34 C          61.3294   91.4088    4.0743 C.ar    1  UNL1        0.0174
     35 C          60.5122   92.4483    3.3658 C.ar    1  UNL1        0.0511
     36 C          59.0660   92.6336    3.7180 C.ar    1  UNL1        0.0541
     37 C          58.4370   91.7795    4.7787 C.ar    1  UNL1        0.1684
     38 N          61.1412   93.3023    2.3052 N.pl3   1  UNL1       -0.3072
     39 C          62.5856   93.1121    1.9480 C.3     1  UNL1        0.0932
     40 C          63.2146   93.9661    0.8873 C.3     1  UNL1        0.0497
     41 C          62.3993   95.0103    0.1839 C.3     1  UNL1        0.1063
     42 O          63.7197   95.2064   -0.5001 O.3     1  UNL1       -0.3853
     43 C          60.9549   95.2005    0.5411 C.3     1  UNL1        0.0497
     44 C          60.3258   94.3464    1.6018 C.3     1  UNL1        0.0932
     45 H          64.3672   94.5811   -0.1385 H       1  UNL1        0.2103
     46 C          62.0425   96.1226   -0.7571 C.3     1  UNL1        0.0994
     47 N          61.2998   95.8229   -2.0254 N.3     1  UNL1       -0.2683
     48 C          61.7369   94.6848   -2.8994 C.3     1  UNL1        0.0897
     49 C          60.9941   94.3852   -4.1677 C.3     1  UNL1        0.0897
     50 N          59.8144   95.2235   -4.5620 N.3     1  UNL1       -0.2691
     51 C          59.0717   94.9237   -5.8303 C.3     1  UNL1        0.0897
     52 C          59.3773   96.3615   -3.6880 C.3     1  UNL1        0.0897
     53 C          60.1200   96.6611   -2.4197 C.3     1  UNL1        0.0897
     54 O          56.9908   91.9649    5.1309 O.3     1  UNL1       -0.4687
     55 C          56.0514   90.7963    5.0834 C.3     1  UNL1        0.2526
@<TRIPOS>BOND
     1    26    27    1
     2    27    20    1
     3    20    21   ar
     4    21    22   ar
     5    22    23   ar
     6    23    24   ar
     7    24    28    1
     8    28    29    1
     9    24    25   ar
    10    25    10    1
    11    10    11    1
    12    11    12    1
    13    12    13    1
    14    13    14   ar
    15    14    15   ar
    16    15     1    1
    17     1     2    2
    18     2     3    1
    19     3    30    1
    20    30    32    1
    21    32    33   ar
    22    33    34   ar
    23    34    35   ar
    24    35    38    1
    25    38    39    1
    26    39    40    1
    27    40    41    1
    28    41    42    1
    29    41    46    1
    30    46    47    1
    31    47    48    1
    32    48    49    1
    33    49    50    1
    34    50    51    1
    35    50    52    1
    36    52    53    1
    37    41    43    1
    38    43    44    1
    39    35    36   ar
    40    36    37   ar
    41    37    54    1
    42    54    55    1
    43     3     4    2
    44     4     5    1
    45     5     6    2
    46     6     7    1
    47     7     8    2
    48     8     9    1
    49    15    16   ar
    50    16    17   ar
    51    17    18    1
    52    18    19    2
    53    25    20   ar
    54    18    10   am
    55    17    13   ar
    56     9     1    1
    57    37    32   ar
    58     9     5    1
    59    44    38    1
    60    53    47    1
    61    30    31    1
    62    42    45    1
