@<TRIPOS>MOLECULE
*****
 27 29 0 0 0
SMALL
GASTEIGER

@<TRIPOS>ATOM
      1 C          62.2099   87.2320   11.9040 C.2     1  UNK1        0.0253
      2 C          62.9863   88.5005   12.0998 C.ar    1  UNK1        0.1135
      3 N          62.8838   89.6058   11.0910 N.ar    1  UNK1       -0.3163
      4 C          63.6601   90.8742   11.2868 C.ar    2  PHE2        0.2734
      5 O          63.5577   91.9796   10.2780 O.2     2  PHE2       -0.2656
      6 CA         64.5390   91.0373   12.4914 C.ar    2  PHE2        0.1156
      7 CB         65.3154   92.3057   12.6872 C.2     2  PHE2        0.0219
      8 N          64.6415   89.9319   13.5002 N.ar    2  PHE2       -0.3161
      9 C          63.8651   88.6635   13.3044 C.ar    1  UNK1        0.2732
     10 O          63.9676   87.5581   14.3132 O.2     1  UNK1       -0.2656
     11 H          62.3070   89.4988   10.3004 H       1  UNK1        0.1691
     12 H          65.2183   90.0390   14.2908 H       2  PHE2        0.1691
     13 CG         66.1942   92.4688   13.8918 C.ar    2  PHE2        0.0016
     14 CD1        65.5823   92.5868   15.2562 C.ar    2  PHE2        0.0000
     15 CE1        66.4611   92.7498   16.4607 C.ar    2  PHE2        0.0000
     16 CZ         67.9519   92.7950   16.3010 C.ar    2  PHE2        0.0000
     17 CE2        68.5639   92.6770   14.9365 C.ar    2  PHE2        0.0000
     18 CD2        67.6850   92.5139   13.7319 C.ar    2  PHE2        0.0000
     19 C          61.4933   86.0372    9.6228 C.2     1  UNK1        0.0642
     20 N          60.3982   86.2396    8.6179 N.2     1  UNK1       -0.2308
     21 C          59.5590   87.3964    9.0735 C.2     1  UNK1        0.1942
     22 N          60.1356   87.9089   10.3600 N.2     1  UNK1       -0.2418
     23 C          61.3310   87.0689   10.6994 C.3     1  UNK1        0.1641
     24 C          62.8938   85.4060    8.1599 C.3     1  UNK1        0.0057
     25 C          62.5630   84.9874    9.5617 C.3     1  UNK1        0.0339
     26 C          62.2321   84.5686   10.9636 C.3     1  UNK1        0.0057
     27 C          63.6326   83.9375    9.5007 C.3     1  UNK1        0.0057
@<TRIPOS>BOND
     1    24    25    1
     2    25    26    1
     3    25    27    1
     4    25    19    1
     5    19    20    2
     6    20    21    1
     7    21    22    2
     8    22    23    1
     9    23     1    1
    10     1     2    2
    11     2     3   ar
    12     3     4   ar
    13     4     5    2
    14     4     6   ar
    15     6     7    2
    16     7    13    1
    17    13    14   ar
    18    14    15   ar
    19    15    16   ar
    20    16    17   ar
    21    17    18   ar
    22     6     8   ar
    23     8     9   ar
    24     9    10    2
    25    23    19    1
    26     9     2   ar
    27    18    13   ar
    28     3    11    1
    29     8    12    1
@<TRIPOS>MOLECULE
*****
 27 29 0 0 0
SMALL
GASTEIGER

@<TRIPOS>ATOM
      1 C          63.6249   89.7657   13.5422 C.2     1  UNK1        0.0253
      2 C          63.7260   88.2783   13.7085 C.ar    1  UNK1        0.1135
      3 N          64.1824   87.6990   15.0146 N.ar    1  UNK1       -0.3163
      4 C          64.2835   86.2117   15.1808 C.ar    2  PHE2        0.2734
      5 O          64.7400   85.6323   16.4870 O.2     2  PHE2       -0.2656
      6 CA         63.9282   85.3037   14.0409 C.ar    2  PHE2        0.1156
      7 CB         64.0293   83.8163   14.2072 C.2     2  PHE2        0.0219
      8 N          63.4717   85.8830   12.7348 N.ar    2  PHE2       -0.3161
      9 C          63.3706   87.3703   12.5686 C.ar    1  UNK1        0.2732
     10 O          62.9142   87.9497   11.2624 O.2     1  UNK1       -0.2656
     11 H          64.4156   88.2949   15.7627 H       1  UNK1        0.1691
     12 H          63.2385   85.2871   11.9867 H       2  PHE2        0.1691
     13 CG         63.6740   82.9084   13.0674 C.ar    2  PHE2        0.0016
     14 CD1        64.2189   83.1776   11.6961 C.ar    2  PHE2        0.0000
     15 CE1        63.8636   82.2696   10.5562 C.ar    2  PHE2        0.0000
     16 CZ         62.9633   81.0924   10.7876 C.ar    2  PHE2        0.0000
     17 CE2        62.4182   80.8232   12.1590 C.ar    2  PHE2        0.0000
     18 CD2        62.7736   81.7311   13.2988 C.ar    2  PHE2        0.0000
     19 C          65.1213   91.6467   14.7114 C.2     1  UNK1        0.0642
     20 N          65.1032   92.3425   16.0402 N.2     1  UNK1       -0.2308
     21 C          63.9508   91.7993   16.8321 C.2     1  UNK1        0.1942
     22 N          63.2568   90.7680   15.9927 N.2     1  UNK1       -0.2418
     23 C          63.9802   90.6737   14.6820 C.3     1  UNK1        0.1641
     24 C          67.2124   91.3727   14.4830 C.3     1  UNK1        0.0057
     25 C          66.1075   91.8827   13.6061 C.3     1  UNK1        0.0339
     26 C          65.0026   92.3928   12.7292 C.3     1  UNK1        0.0057
     27 C          67.0936   92.1188   12.5007 C.3     1  UNK1        0.0057
@<TRIPOS>BOND
     1    24    25    1
     2    25    26    1
     3    25    27    1
     4    25    19    1
     5    19    20    2
     6    20    21    1
     7    21    22    2
     8    22    23    1
     9    23     1    1
    10     1     2    2
    11     2     3   ar
    12     3     4   ar
    13     4     5    2
    14     4     6   ar
    15     6     7    2
    16     7    13    1
    17    13    14   ar
    18    14    15   ar
    19    15    16   ar
    20    16    17   ar
    21    17    18   ar
    22     6     8   ar
    23     8     9   ar
    24     9    10    2
    25    23    19    1
    26     9     2   ar
    27    18    13   ar
    28     3    11    1
    29     8    12    1
@<TRIPOS>MOLECULE
*****
 27 29 0 0 0
SMALL
GASTEIGER

@<TRIPOS>ATOM
      1 C          63.6711   89.8717   13.5393 C.2     1  UNK1        0.0253
      2 C          63.7592   88.3830   13.7009 C.ar    1  UNK1        0.1135
      3 N          64.2167   87.7958   15.0031 N.ar    1  UNK1       -0.3163
      4 C          64.3048   86.3072   15.1647 C.ar    2  PHE2        0.2734
      5 O          64.7624   85.7199   16.4670 O.2     2  PHE2       -0.2656
      6 CA         63.9353   85.4058   14.0241 C.ar    2  PHE2        0.1156
      7 CB         64.0234   83.9170   14.1858 C.2     2  PHE2        0.0219
      8 N          63.4778   85.9930   12.7219 N.ar    2  PHE2       -0.3161
      9 C          63.3897   87.4816   12.5604 C.ar    1  UNK1        0.2732
     10 O          62.9321   88.0689   11.2581 O.2     1  UNK1       -0.2656
     11 H          64.4592   88.3874   15.7517 H       1  UNK1        0.1691
     12 H          63.2352   85.4014   11.9733 H       2  PHE2        0.1691
     13 CG         63.6539   83.0156   13.0452 C.ar    2  PHE2        0.0016
     14 CD1        62.6763   81.8983   13.2586 C.ar    2  PHE2        0.0000
     15 CE1        62.3068   80.9969   12.1180 C.ar    2  PHE2        0.0000
     16 CZ         62.9150   81.2128   10.7640 C.ar    2  PHE2        0.0000
     17 CE2        63.8927   82.3303   10.5505 C.ar    2  PHE2        0.0000
     18 CD2        64.2622   83.2317   11.6911 C.ar    2  PHE2        0.0000
     19 C          65.2161   91.7039   14.7231 C.2     1  UNK1        0.0642
     20 N          65.2014   92.4080   16.0474 N.2     1  UNK1       -0.2308
     21 C          64.0168   91.9125   16.8228 C.2     1  UNK1        0.1942
     22 N          63.2994   90.9021   15.9776 N.2     1  UNK1       -0.2418
     23 C          64.0405   90.7731   14.6799 C.3     1  UNK1        0.1641
     24 C          67.2974   91.3434   14.5283 C.3     1  UNK1        0.0057
     25 C          66.2285   91.8966   13.6332 C.3     1  UNK1        0.0339
     26 C          65.1596   92.4498   12.7380 C.3     1  UNK1        0.0057
     27 C          67.2410   92.0894   12.5433 C.3     1  UNK1        0.0057
@<TRIPOS>BOND
     1    24    25    1
     2    25    26    1
     3    25    27    1
     4    25    19    1
     5    19    20    2
     6    20    21    1
     7    21    22    2
     8    22    23    1
     9    23     1    1
    10     1     2    2
    11     2     3   ar
    12     3     4   ar
    13     4     5    2
    14     4     6   ar
    15     6     7    2
    16     7    13    1
    17    13    14   ar
    18    14    15   ar
    19    15    16   ar
    20    16    17   ar
    21    17    18   ar
    22     6     8   ar
    23     8     9   ar
    24     9    10    2
    25    23    19    1
    26     9     2   ar
    27    18    13   ar
    28     3    11    1
    29     8    12    1
@<TRIPOS>MOLECULE
*****
 27 29 0 0 0
SMALL
GASTEIGER

@<TRIPOS>ATOM
      1 C          63.8216   91.4566   12.8256 C.2     1  UNK1        0.0253
      2 C          63.4758   90.0783   12.3449 C.ar    1  UNK1        0.1135
      3 N          63.6199   88.9042   13.2672 N.ar    1  UNK1       -0.3163
      4 C          63.2741   87.5261   12.7865 C.ar    2  PHE2        0.2734
      5 O          63.4182   86.3519   13.7088 O.2     2  PHE2       -0.2656
      6 CA         62.7841   87.3221   11.3835 C.ar    2  PHE2        0.1156
      7 CB         62.4382   85.9439   10.9029 C.2     2  PHE2        0.0219
      8 N          62.6399   88.4962   10.4613 N.ar    2  PHE2       -0.3161
      9 C          62.9857   89.8743   10.9420 C.ar    1  UNK1        0.2732
     10 O          62.8416   91.0486   10.0197 O.2     1  UNK1       -0.2656
     11 H          63.9415   89.0381   14.1880 H       1  UNK1        0.1691
     12 H          62.3183   88.3623    9.5405 H       2  PHE2        0.1691
     13 CG         61.9482   85.7399    9.4999 C.ar    2  PHE2        0.0016
     14 CD1        60.5643   86.1747    9.1182 C.ar    2  PHE2        0.0000
     15 CE1        60.0743   85.9707    7.7152 C.ar    2  PHE2        0.0000
     16 CZ         60.9681   85.3319    6.6940 C.ar    2  PHE2        0.0000
     17 CE2        62.3521   84.8970    7.0757 C.ar    2  PHE2        0.0000
     18 CD2        62.8421   85.1010    8.4787 C.ar    2  PHE2        0.0000
     19 C          65.7074   92.0366   14.6290 C.2     1  UNK1        0.0642
     20 N          65.7503   92.1328   16.1253 N.2     1  UNK1       -0.2308
     21 C          64.3811   91.8162   16.6496 C.2     1  UNK1        0.1942
     22 N          63.4919   91.5244   15.4773 N.2     1  UNK1       -0.2418
     23 C          64.3116   91.6606   14.2285 C.3     1  UNK1        0.1641
     24 C          67.5954   91.1228   14.3128 C.3     1  UNK1        0.0057
     25 C          66.8582   92.2747   13.6969 C.3     1  UNK1        0.0339
     26 C          66.1210   93.4267   13.0809 C.3     1  UNK1        0.0057
     27 C          68.0091   92.5129   12.7647 C.3     1  UNK1        0.0057
@<TRIPOS>BOND
     1    24    25    1
     2    25    26    1
     3    25    27    1
     4    25    19    1
     5    19    20    2
     6    20    21    1
     7    21    22    2
     8    22    23    1
     9    23     1    1
    10     1     2    2
    11     2     3   ar
    12     3     4   ar
    13     4     5    2
    14     4     6   ar
    15     6     7    2
    16     7    13    1
    17    13    14   ar
    18    14    15   ar
    19    15    16   ar
    20    16    17   ar
    21    17    18   ar
    22     6     8   ar
    23     8     9   ar
    24     9    10    2
    25    23    19    1
    26     9     2   ar
    27    18    13   ar
    28     3    11    1
    29     8    12    1
@<TRIPOS>MOLECULE
*****
 27 29 0 0 0
SMALL
GASTEIGER

@<TRIPOS>ATOM
      1 C          64.5282   89.1944   14.1982 C.2     1  UNK1        0.0253
      2 C          63.9833   87.9533   13.5557 C.ar    1  UNK1        0.1135
      3 N          63.3974   88.0181   12.1764 N.ar    1  UNK1       -0.3163
      4 C          62.8525   86.7770   11.5339 C.ar    2  PHE2        0.2734
      5 O          62.2666   86.8418   10.1546 O.2     2  PHE2       -0.2656
      6 CA         62.8936   85.4711   12.2707 C.ar    2  PHE2        0.1156
      7 CB         62.3487   84.2300   11.6282 C.2     2  PHE2        0.0219
      8 N          63.4795   85.4063   13.6500 N.ar    2  PHE2       -0.3161
      9 C          64.0243   86.6474   14.2925 C.ar    1  UNK1        0.2732
     10 O          64.6103   86.5826   15.6718 O.2     1  UNK1       -0.2656
     11 H          63.3704   88.8752   11.6928 H       1  UNK1        0.1691
     12 H          63.5064   84.5492   14.1336 H       2  PHE2        0.1691
     13 CG         62.3897   82.9241   12.3650 C.ar    2  PHE2        0.0016
     14 CD1        62.0072   82.8683   13.8143 C.ar    2  PHE2        0.0000
     15 CE1        62.0482   81.5624   14.5511 C.ar    2  PHE2        0.0000
     16 CZ         62.4718   80.3122   13.8387 C.ar    2  PHE2        0.0000
     17 CE2        62.8544   80.3680   12.3893 C.ar    2  PHE2        0.0000
     18 CD2        62.8133   81.6739   11.6525 C.ar    2  PHE2        0.0000
     19 C          65.3783   91.6811   13.7095 C.2     1  UNK1        0.0642
     20 N          64.9897   92.7653   12.7486 N.2     1  UNK1       -0.2308
     21 C          63.8583   92.2546   11.9065 C.2     1  UNK1        0.1942
     22 N          63.5477   90.8548   12.3470 N.2     1  UNK1       -0.2418
     23 C          64.4871   90.5003   13.4614 C.3     1  UNK1        0.1641
     24 C          65.4401   91.9940   15.8067 C.3     1  UNK1        0.0057
     25 C          66.4671   91.7632   14.7381 C.3     1  UNK1        0.0339
     26 C          67.4941   91.5325   13.6694 C.3     1  UNK1        0.0057
     27 C          67.5559   91.8454   15.7666 C.3     1  UNK1        0.0057
@<TRIPOS>BOND
     1    24    25    1
     2    25    26    1
     3    25    27    1
     4    25    19    1
     5    19    20    2
     6    20    21    1
     7    21    22    2
     8    22    23    1
     9    23     1    1
    10     1     2    2
    11     2     3   ar
    12     3     4   ar
    13     4     5    2
    14     4     6   ar
    15     6     7    2
    16     7    13    1
    17    13    14   ar
    18    14    15   ar
    19    15    16   ar
    20    16    17   ar
    21    17    18   ar
    22     6     8   ar
    23     8     9   ar
    24     9    10    2
    25    23    19    1
    26     9     2   ar
    27    18    13   ar
    28     3    11    1
    29     8    12    1
@<TRIPOS>MOLECULE
*****
 27 29 0 0 0
SMALL
GASTEIGER

@<TRIPOS>ATOM
      1 C          62.0780   87.2880   11.7001 C.2     1  UNK1        0.0253
      2 C          62.8940   88.5257   11.9290 C.ar    1  UNK1        0.1135
      3 N          62.8367   89.6548   10.9432 N.ar    1  UNK1       -0.3163
      4 C          63.6527   90.8924   11.1721 C.ar    2  PHE2        0.2734
      5 O          63.5954   92.0215   10.1862 O.2     2  PHE2       -0.2656
      6 CA         64.5259   91.0010   12.3869 C.ar    2  PHE2        0.1156
      7 CB         65.3419   92.2387   12.6158 C.2     2  PHE2        0.0219
      8 N          64.5832   89.8719   13.3727 N.ar    2  PHE2       -0.3161
      9 C          63.7672   88.6343   13.1438 C.ar    1  UNK1        0.2732
     10 O          63.8245   87.5052   14.1296 O.2     1  UNK1       -0.2656
     11 H          62.2636   89.5835   10.1459 H       1  UNK1        0.1691
     12 H          65.1563   89.9432   14.1700 H       2  PHE2        0.1691
     13 CG         66.2151   92.3473   13.8305 C.ar    2  PHE2        0.0016
     14 CD1        65.5985   92.5650   15.1804 C.ar    2  PHE2        0.0000
     15 CE1        66.4717   92.6736   16.3952 C.ar    2  PHE2        0.0000
     16 CZ         67.9616   92.5644   16.2601 C.ar    2  PHE2        0.0000
     17 CE2        68.5783   92.3467   14.9101 C.ar    2  PHE2        0.0000
     18 CD2        67.7051   92.2381   13.6953 C.ar    2  PHE2        0.0000
     19 C          60.1162   88.1343   10.0938 C.2     1  UNK1        0.0642
     20 N          59.5054   87.6419    8.8153 N.2     1  UNK1       -0.2308
     21 C          60.2165   86.3828    8.4166 C.2     1  UNK1        0.1942
     22 N          61.2667   86.0970    9.4488 N.2     1  UNK1       -0.2418
     23 C          61.2048   87.1794   10.4853 C.3     1  UNK1        0.1641
     24 C          59.2072   88.5099   11.9733 C.3     1  UNK1        0.0057
     25 C          59.7097   89.3653   10.8483 C.3     1  UNK1        0.0339
     26 C          60.2122   90.2208    9.7233 C.3     1  UNK1        0.0057
     27 C          59.3032   90.5965   11.6028 C.3     1  UNK1        0.0057
@<TRIPOS>BOND
     1    24    25    1
     2    25    26    1
     3    25    27    1
     4    25    19    1
     5    19    20    2
     6    20    21    1
     7    21    22    2
     8    22    23    1
     9    23     1    1
    10     1     2    2
    11     2     3   ar
    12     3     4   ar
    13     4     5    2
    14     4     6   ar
    15     6     7    2
    16     7    13    1
    17    13    14   ar
    18    14    15   ar
    19    15    16   ar
    20    16    17   ar
    21    17    18   ar
    22     6     8   ar
    23     8     9   ar
    24     9    10    2
    25    23    19    1
    26     9     2   ar
    27    18    13   ar
    28     3    11    1
    29     8    12    1
@<TRIPOS>MOLECULE
*****
 27 29 0 0 0
SMALL
GASTEIGER

@<TRIPOS>ATOM
      1 C          63.1850   88.6075   12.3544 C.2     1  UNK1        0.0253
      2 C          63.3212   87.1581   12.7161 C.ar    1  UNK1        0.1135
      3 N          63.8064   86.7680   14.0808 N.ar    1  UNK1       -0.3163
      4 C          63.9425   85.3186   14.4424 C.ar    2  PHE2        0.2734
      5 O          64.4277   84.9285   15.8071 O.2     2  PHE2       -0.2656
      6 CA         63.5934   84.2594   13.4393 C.ar    2  PHE2        0.1156
      7 CB         63.7296   82.8100   13.8010 C.2     2  PHE2        0.0219
      8 N          63.1082   84.6495   12.0746 N.ar    2  PHE2       -0.3161
      9 C          62.9721   86.0988   11.7130 C.ar    1  UNK1        0.2732
     10 O          62.4869   86.4890   10.3483 O.2     1  UNK1       -0.2656
     11 H          64.0355   87.4632   14.7391 H       1  UNK1        0.1691
     12 H          62.8791   83.9543   11.4163 H       2  PHE2        0.1691
     13 CG         63.3805   81.7507   12.7979 C.ar    2  PHE2        0.0016
     14 CD1        63.6235   81.9915   11.3375 C.ar    2  PHE2        0.0000
     15 CE1        63.2744   80.9323   10.3344 C.ar    2  PHE2        0.0000
     16 CZ         62.6824   79.6322   10.7918 C.ar    2  PHE2        0.0000
     17 CE2        62.4393   79.3913   12.2523 C.ar    2  PHE2        0.0000
     18 CD2        62.7884   80.4506   13.2553 C.ar    2  PHE2        0.0000
     19 C          64.0612   91.0362   13.0464 C.2     1  UNK1        0.0642
     20 N          64.2702   91.7584   14.3444 N.2     1  UNK1       -0.2308
     21 C          63.8723   90.8352   15.4577 C.2     1  UNK1        0.1942
     22 N          63.4174   89.5426   14.8478 N.2     1  UNK1       -0.2418
     23 C          63.5341   89.6668   13.3575 C.3     1  UNK1        0.1641
     24 C          62.9641   91.1587   11.2350 C.3     1  UNK1        0.0057
     25 C          64.3318   91.5869   11.6776 C.3     1  UNK1        0.0339
     26 C          65.6995   92.0151   12.1202 C.3     1  UNK1        0.0057
     27 C          64.6024   92.1376   10.3088 C.3     1  UNK1        0.0057
@<TRIPOS>BOND
     1    24    25    1
     2    25    26    1
     3    25    27    1
     4    25    19    1
     5    19    20    2
     6    20    21    1
     7    21    22    2
     8    22    23    1
     9    23     1    1
    10     1     2    2
    11     2     3   ar
    12     3     4   ar
    13     4     5    2
    14     4     6   ar
    15     6     7    2
    16     7    13    1
    17    13    14   ar
    18    14    15   ar
    19    15    16   ar
    20    16    17   ar
    21    17    18   ar
    22     6     8   ar
    23     8     9   ar
    24     9    10    2
    25    23    19    1
    26     9     2   ar
    27    18    13   ar
    28     3    11    1
    29     8    12    1
@<TRIPOS>MOLECULE
*****
 27 29 0 0 0
SMALL
GASTEIGER

@<TRIPOS>ATOM
      1 C          63.2640   89.4661   12.1204 C.2     1  UNK1        0.0253
      2 C          62.3395   89.2266   10.9636 C.ar    1  UNK1        0.1135
      3 N          61.6892   87.8863   10.7882 N.ar    1  UNK1       -0.3163
      4 C          60.7648   87.6469    9.6315 C.ar    2  PHE2        0.2734
      5 O          60.1145   86.3066    9.4561 O.2     2  PHE2       -0.2656
      6 CA         60.4906   88.7477    8.6502 C.ar    2  PHE2        0.1156
      7 CB         59.5660   88.5082    7.4935 C.2     2  PHE2        0.0219
      8 N          61.1408   90.0880    8.8256 N.ar    2  PHE2       -0.3161
      9 C          62.0652   90.3275    9.9823 C.ar    1  UNK1        0.2732
     10 O          62.7155   91.6678   10.1578 O.2     1  UNK1       -0.2656
     11 H          61.8692   87.1638   11.4323 H       1  UNK1        0.1691
     12 H          60.9608   90.8105    8.1815 H       2  PHE2        0.1691
     13 CG         59.2918   89.6091    6.5122 C.ar    2  PHE2        0.0016
     14 CD1        60.4264   90.2562    5.7747 C.ar    2  PHE2        0.0000
     15 CE1        60.1522   91.3571    4.7934 C.ar    2  PHE2        0.0000
     16 CZ         58.7434   91.8107    4.5495 C.ar    2  PHE2        0.0000
     17 CE2        57.6087   91.1635    5.2870 C.ar    2  PHE2        0.0000
     18 CD2        57.8830   90.0627    6.2683 C.ar    2  PHE2        0.0000
     19 C          63.8866   88.5417   14.5500 C.2     1  UNK1        0.0642
     20 N          64.0759   87.1802   15.1504 N.2     1  UNK1       -0.2308
     21 C          63.8445   86.1623   14.0732 C.2     1  UNK1        0.1942
     22 N          63.5122   86.8947   12.8070 N.2     1  UNK1       -0.2418
     23 C          63.5382   88.3653   13.1017 C.3     1  UNK1        0.1641
     24 C          62.9865   89.4101   16.2633 C.3     1  UNK1        0.0057
     25 C          64.0219   89.8499   15.2712 C.3     1  UNK1        0.0339
     26 C          65.0574   90.2898   14.2791 C.3     1  UNK1        0.0057
     27 C          64.1573   91.1582   15.9924 C.3     1  UNK1        0.0057
@<TRIPOS>BOND
     1    24    25    1
     2    25    26    1
     3    25    27    1
     4    25    19    1
     5    19    20    2
     6    20    21    1
     7    21    22    2
     8    22    23    1
     9    23     1    1
    10     1     2    2
    11     2     3   ar
    12     3     4   ar
    13     4     5    2
    14     4     6   ar
    15     6     7    2
    16     7    13    1
    17    13    14   ar
    18    14    15   ar
    19    15    16   ar
    20    16    17   ar
    21    17    18   ar
    22     6     8   ar
    23     8     9   ar
    24     9    10    2
    25    23    19    1
    26     9     2   ar
    27    18    13   ar
    28     3    11    1
    29     8    12    1
@<TRIPOS>MOLECULE
*****
 27 29 0 0 0
SMALL
GASTEIGER

@<TRIPOS>ATOM
      1 C          64.2998   89.3686   14.7776 C.2     1  UNK1        0.0253
      2 C          63.5363   89.2739   13.4898 C.ar    1  UNK1        0.1135
      3 N          62.8854   90.4956   12.9123 N.ar    1  UNK1       -0.3163
      4 C          62.1220   90.4009   11.6246 C.ar    2  PHE2        0.2734
      5 O          61.4710   91.6227   11.0469 O.2     2  PHE2       -0.2656
      6 CA         62.0094   89.0845   10.9145 C.ar    2  PHE2        0.1156
      7 CB         61.2459   88.9898    9.6268 C.2     2  PHE2        0.0219
      8 N          62.6603   87.8627   11.4921 N.ar    2  PHE2       -0.3161
      9 C          63.4237   87.9574   12.7797 C.ar    1  UNK1        0.2732
     10 O          64.0746   86.7356   13.3574 O.2     1  UNK1       -0.2656
     11 H          62.9593   91.3597   13.3783 H       1  UNK1        0.1691
     12 H          62.5864   86.9987   11.0260 H       2  PHE2        0.1691
     13 CG         61.1333   87.6733    8.9167 C.ar    2  PHE2        0.0016
     14 CD1        59.8493   87.2930    8.2410 C.ar    2  PHE2        0.0000
     15 CE1        59.7367   85.9765    7.5309 C.ar    2  PHE2        0.0000
     16 CZ         60.9082   85.0404    7.4965 C.ar    2  PHE2        0.0000
     17 CE2        62.1923   85.4207    8.1721 C.ar    2  PHE2        0.0000
     18 CD2        62.3049   86.7371    8.8822 C.ar    2  PHE2        0.0000
     19 C          65.4061   91.7673   15.1861 C.2     1  UNK1        0.0642
     20 N          65.1589   92.9016   16.1360 N.2     1  UNK1       -0.2308
     21 C          64.0123   92.5202   17.0248 C.2     1  UNK1        0.1942
     22 N          63.5509   91.1504   16.6240 N.2     1  UNK1       -0.2418
     23 C          64.4123   90.6850   15.4877 C.3     1  UNK1        0.1641
     24 C          67.4601   91.2398   15.1312 C.3     1  UNK1        0.0057
     25 C          66.4619   91.7232   14.1214 C.3     1  UNK1        0.0339
     26 C          65.4637   92.2066   13.1115 C.3     1  UNK1        0.0057
     27 C          67.5176   91.6791   13.0567 C.3     1  UNK1        0.0057
@<TRIPOS>BOND
     1    24    25    1
     2    25    26    1
     3    25    27    1
     4    25    19    1
     5    19    20    2
     6    20    21    1
     7    21    22    2
     8    22    23    1
     9    23     1    1
    10     1     2    2
    11     2     3   ar
    12     3     4   ar
    13     4     5    2
    14     4     6   ar
    15     6     7    2
    16     7    13    1
    17    13    14   ar
    18    14    15   ar
    19    15    16   ar
    20    16    17   ar
    21    17    18   ar
    22     6     8   ar
    23     8     9   ar
    24     9    10    2
    25    23    19    1
    26     9     2   ar
    27    18    13   ar
    28     3    11    1
    29     8    12    1
