@<TRIPOS>MOLECULE
*****
 27 29 0 0 0
SMALL
GASTEIGER

@<TRIPOS>ATOM
      1 N          63.2179   89.6140   16.6078 N.pl3   1  UNL1       -0.3375
      2 C          63.4836   90.1382   15.2277 C.ar    1  UNL1        0.1568
      3 N          62.8244   89.6694   13.9645 N.ar    1  UNL1       -0.2242
      4 C          63.3885   90.4646   12.8246 C.ar    1  UNL1        0.0967
      5 C          63.1147   90.4384   11.3500 C.ar    1  UNL1        0.0747
      6 C          63.8487   91.3725   10.4341 C.ar    1  UNL1        0.0458
      7 C          64.8565   92.3328   10.9929 C.ar    1  UNL1        0.1682
      8 O          65.5905   93.2668   10.0771 O.3     1  UNL1       -0.5029
      9 C          65.1303   92.3590   12.4675 C.ar    1  UNL1        0.1751
     10 O          66.1381   93.3193   13.0262 O.3     1  UNL1       -0.5025
     11 C          64.3963   91.4249   13.3833 C.ar    1  UNL1        0.0865
     12 S          64.4551   91.2231   14.8685 S.2     1  UNL1       -0.0488
     13 H          62.5579   88.8962   16.7431 H       1  UNL1        0.1442
     14 H          63.7036   89.9878   17.3783 H       1  UNL1        0.1442
     15 H          65.4194   93.2505    9.1559 H       1  UNL1        0.2923
     16 H          66.5966   93.9027   12.4541 H       1  UNL1        0.2923
     17 C          62.1069   89.4781   10.7913 C.2     1  UNL1        0.2477
     18 O          61.2593   89.8776    9.6201 O.2     1  UNL1       -0.2701
     19 N          61.9467   88.1183   11.4039 N.am    1  UNL1       -0.2969
     20 H          62.5030   87.8560   12.1727 H       1  UNL1        0.1501
     21 C          60.9389   87.1580   10.8452 C.3     1  UNL1        0.1166
     22 C          61.2212   86.4380    9.5600 C.ar    1  UNL1       -0.0026
     23 C          60.1432   86.2978    8.5264 C.ar    1  UNL1       -0.0026
     24 C          60.4254   85.5778    7.2412 C.ar    1  UNL1       -0.0003
     25 C          61.7858   84.9979    6.9895 C.ar    1  UNL1       -0.0000
     26 C          62.8638   85.1381    8.0230 C.ar    1  UNL1       -0.0003
     27 C          62.5814   85.8581    9.3083 C.ar    1  UNL1       -0.0026
@<TRIPOS>BOND
     1     1     2    1
     2     2     3   ar
     3     3     4   ar
     4     4     5   ar
     5     5    17    1
     6    17    18    2
     7    17    19   am
     8    19    21    1
     9    21    22    1
    10    22    23   ar
    11    23    24   ar
    12    24    25   ar
    13    25    26   ar
    14    26    27   ar
    15     5     6   ar
    16     6     7   ar
    17     7     8    1
    18     7     9   ar
    19     9    10    1
    20     9    11   ar
    21    11    12   ar
    22    12     2   ar
    23    11     4   ar
    24    27    22   ar
    25     1    13    1
    26     1    14    1
    27    19    20    1
    28     8    15    1
    29    10    16    1
@<TRIPOS>MOLECULE
*****
 27 29 0 0 0
SMALL
GASTEIGER

@<TRIPOS>ATOM
      1 N          63.1720   91.0412   12.8706 N.pl3   1  UNL1       -0.3375
      2 C          62.5731   90.0249   11.9440 C.ar    1  UNL1        0.1568
      3 N          62.8379   88.5486   11.9647 N.ar    1  UNL1       -0.2242
      4 C          62.0327   87.9179   10.8675 C.ar    1  UNL1        0.0967
      5 C          61.8953   86.4946   10.4144 C.ar    1  UNL1        0.0747
      6 C          60.9955   86.1577    9.2625 C.ar    1  UNL1        0.0458
      7 C          60.2331   87.2442    8.5636 C.ar    1  UNL1        0.1682
      8 O          59.3333   86.9074    7.4117 O.3     1  UNL1       -0.5029
      9 C          60.3706   88.6676    9.0167 C.ar    1  UNL1        0.1751
     10 O          59.6083   89.7541    8.3179 O.3     1  UNL1       -0.5025
     11 C          61.2704   89.0044   10.1686 C.ar    1  UNL1        0.0865
     12 S          61.6044   90.3066   10.8340 S.2     1  UNL1       -0.0488
     13 H          63.8018   90.7571   13.5720 H       1  UNL1        0.1442
     14 H          62.9352   91.9922   12.7775 H       1  UNL1        0.1442
     15 H          59.2475   86.0183    7.1287 H       1  UNL1        0.2923
     16 H          59.0462   89.5436    7.5983 H       1  UNL1        0.2923
     17 C          62.6576   85.4081   11.1133 C.2     1  UNL1        0.2477
     18 O          63.2538   84.2820   10.3219 O.2     1  UNL1       -0.2701
     19 N          62.8237   85.4478   12.6036 N.am    1  UNL1       -0.2969
     20 H          62.4324   86.1869   13.1230 H       1  UNL1        0.1501
     21 C          63.5861   84.3613   13.3024 C.3     1  UNL1        0.1166
     22 C          63.0390   82.9651   13.3384 C.ar    1  UNL1       -0.0026
     23 C          61.9701   82.6036   14.3266 C.ar    1  UNL1       -0.0026
     24 C          61.4230   81.2075   14.3626 C.ar    1  UNL1       -0.0003
     25 C          61.9448   80.1727   13.4102 C.ar    1  UNL1       -0.0000
     26 C          63.0138   80.5341   12.4219 C.ar    1  UNL1       -0.0003
     27 C          63.5608   81.9304   12.3860 C.ar    1  UNL1       -0.0026
@<TRIPOS>BOND
     1     1     2    1
     2     2     3   ar
     3     3     4   ar
     4     4     5   ar
     5     5    17    1
     6    17    18    2
     7    17    19   am
     8    19    21    1
     9    21    22    1
    10    22    23   ar
    11    23    24   ar
    12    24    25   ar
    13    25    26   ar
    14    26    27   ar
    15     5     6   ar
    16     6     7   ar
    17     7     8    1
    18     7     9   ar
    19     9    10    1
    20     9    11   ar
    21    11    12   ar
    22    12     2   ar
    23    11     4   ar
    24    27    22   ar
    25     1    13    1
    26     1    14    1
    27    19    20    1
    28     8    15    1
    29    10    16    1
@<TRIPOS>MOLECULE
*****
 27 29 0 0 0
SMALL
GASTEIGER

@<TRIPOS>ATOM
      1 N          61.2263   89.1315    9.6285 N.pl3   1  UNL1       -0.3375
      2 C          62.1773   89.5754   10.7001 C.ar    1  UNL1        0.1568
      3 N          62.5122   88.8179   11.9508 N.ar    1  UNL1       -0.2242
      4 C          63.5023   89.6291   12.7329 C.ar    1  UNL1        0.0967
      5 C          64.1874   89.3841   14.0446 C.ar    1  UNL1        0.0747
      6 C          65.1496   90.3979   14.5891 C.ar    1  UNL1        0.0458
      7 C          65.4267   91.6567   13.8219 C.ar    1  UNL1        0.1682
      8 O          66.3888   92.6705   14.3663 O.3     1  UNL1       -0.5029
      9 C          64.7415   91.9016   12.5101 C.ar    1  UNL1        0.1751
     10 O          65.0186   93.1604   11.7428 O.3     1  UNL1       -0.5025
     11 C          63.7794   90.8878   11.9657 C.ar    1  UNL1        0.0865
     12 S          62.9605   90.8546   10.7093 S.2     1  UNL1       -0.0488
     13 H          60.7567   88.2703    9.7129 H       1  UNL1        0.1442
     14 H          61.0717   89.7013    8.8407 H       1  UNL1        0.1442
     15 H          66.8167   92.5175   15.1857 H       1  UNL1        0.2923
     16 H          65.6196   93.7937   12.0829 H       1  UNL1        0.2923
     17 C          63.9103   88.1253   14.8119 C.2     1  UNL1        0.2477
     18 O          63.4554   88.2017   16.2392 O.2     1  UNL1       -0.2701
     19 N          64.0883   86.7901   14.1518 N.am    1  UNL1       -0.2969
     20 H          64.3869   86.7399   13.2150 H       1  UNL1        0.1501
     21 C          63.8112   85.5313   14.9191 C.3     1  UNL1        0.1166
     22 C          63.2859   84.3196   14.2078 C.ar    1  UNL1       -0.0026
     23 C          63.3850   84.2251   12.7141 C.ar    1  UNL1       -0.0026
     24 C          62.8597   83.0134   12.0028 C.ar    1  UNL1       -0.0003
     25 C          62.2353   81.8963   12.7853 C.ar    1  UNL1       -0.0000
     26 C          62.1362   81.9908   14.2790 C.ar    1  UNL1       -0.0003
     27 C          62.6616   83.2026   14.9903 C.ar    1  UNL1       -0.0026
@<TRIPOS>BOND
     1     1     2    1
     2     2     3   ar
     3     3     4   ar
     4     4     5   ar
     5     5    17    1
     6    17    18    2
     7    17    19   am
     8    19    21    1
     9    21    22    1
    10    22    23   ar
    11    23    24   ar
    12    24    25   ar
    13    25    26   ar
    14    26    27   ar
    15     5     6   ar
    16     6     7   ar
    17     7     8    1
    18     7     9   ar
    19     9    10    1
    20     9    11   ar
    21    11    12   ar
    22    12     2   ar
    23    11     4   ar
    24    27    22   ar
    25     1    13    1
    26     1    14    1
    27    19    20    1
    28     8    15    1
    29    10    16    1
@<TRIPOS>MOLECULE
*****
 27 29 0 0 0
SMALL
GASTEIGER

@<TRIPOS>ATOM
      1 N          63.8923   85.7298   16.6749 N.pl3   1  UNL1       -0.3375
      2 C          63.6374   84.8455   15.4904 C.ar    1  UNL1        0.1568
      3 N          63.2896   85.3051   14.1056 N.ar    1  UNL1       -0.2242
      4 C          63.1229   84.0900   13.2420 C.ar    1  UNL1        0.0967
      5 C          62.7798   83.9295   11.7907 C.ar    1  UNL1        0.0747
      6 C          62.6814   82.5584   11.1904 C.ar    1  UNL1        0.0458
      7 C          62.9262   81.3477   12.0415 C.ar    1  UNL1        0.1682
      8 O          62.8278   79.9766   11.4413 O.3     1  UNL1       -0.5029
      9 C          63.2693   81.5083   13.4930 C.ar    1  UNL1        0.1751
     10 O          63.5140   80.2976   14.3441 O.3     1  UNL1       -0.5025
     11 C          63.3676   82.8794   14.0932 C.ar    1  UNL1        0.0865
     12 S          63.6856   83.3463   15.4827 S.2     1  UNL1       -0.0488
     13 H          63.8368   86.7082   16.5798 H       1  UNL1        0.1442
     14 H          64.1150   85.3319   17.5474 H       1  UNL1        0.1442
     15 H          62.6135   79.8763   10.5347 H       1  UNL1        0.2923
     16 H          63.4526   79.4411   13.9692 H       1  UNL1        0.2923
     17 C          62.5351   85.1402   10.9395 C.2     1  UNL1        0.2477
     18 O          62.8810   85.1134    9.4802 O.2     1  UNL1       -0.2701
     19 N          61.9444   86.3777   11.5478 N.am    1  UNL1       -0.2969
     20 H          61.7174   86.3952   12.5056 H       1  UNL1        0.1501
     21 C          61.6997   87.5883   10.6966 C.3     1  UNL1        0.1166
     22 C          62.4201   88.8705   10.9914 C.ar    1  UNL1       -0.0026
     23 C          63.0805   89.0706   12.3233 C.ar    1  UNL1       -0.0026
     24 C          63.8009   90.3528   12.6182 C.ar    1  UNL1       -0.0003
     25 C          63.8609   91.4349   11.5811 C.ar    1  UNL1       -0.0000
     26 C          63.2005   91.2348   10.2492 C.ar    1  UNL1       -0.0003
     27 C          62.4801   89.9526    9.9544 C.ar    1  UNL1       -0.0026
@<TRIPOS>BOND
     1     1     2    1
     2     2     3   ar
     3     3     4   ar
     4     4     5   ar
     5     5    17    1
     6    17    18    2
     7    17    19   am
     8    19    21    1
     9    21    22    1
    10    22    23   ar
    11    23    24   ar
    12    24    25   ar
    13    25    26   ar
    14    26    27   ar
    15     5     6   ar
    16     6     7   ar
    17     7     8    1
    18     7     9   ar
    19     9    10    1
    20     9    11   ar
    21    11    12   ar
    22    12     2   ar
    23    11     4   ar
    24    27    22   ar
    25     1    13    1
    26     1    14    1
    27    19    20    1
    28     8    15    1
    29    10    16    1
@<TRIPOS>MOLECULE
*****
 27 29 0 0 0
SMALL
GASTEIGER

@<TRIPOS>ATOM
      1 N          62.9551   85.8289   16.6029 N.pl3   1  UNL1       -0.3375
      2 C          62.9279   84.8765   15.4444 C.ar    1  UNL1        0.1568
      3 N          62.9104   85.2542   13.9928 N.ar    1  UNL1       -0.2242
      4 C          62.8851   83.9903   13.1852 C.ar    1  UNL1        0.0967
      5 C          62.8606   83.7450   11.7057 C.ar    1  UNL1        0.0747
      6 C          62.8380   82.3408   11.1785 C.ar    1  UNL1        0.0458
      7 C          62.8400   81.1820   12.1310 C.ar    1  UNL1        0.1682
      8 O          62.8174   79.7779   11.6039 O.3     1  UNL1       -0.5029
      9 C          62.8645   81.4274   13.6106 C.ar    1  UNL1        0.1751
     10 O          62.8665   80.2687   14.5631 O.3     1  UNL1       -0.5025
     11 C          62.8871   82.8316   14.1377 C.ar    1  UNL1        0.0865
     12 S          62.9135   83.3793   15.5339 S.2     1  UNL1       -0.0488
     13 H          62.9630   86.8000   16.4417 H       1  UNL1        0.1442
     14 H          62.9652   85.4827   17.5245 H       1  UNL1        0.1442
     15 H          62.8021   79.6246   10.6797 H       1  UNL1        0.2923
     16 H          62.8524   79.3915   14.2339 H       1  UNL1        0.2923
     17 C          62.8586   84.9038   10.7532 C.2     1  UNL1        0.2477
     18 O          63.4401   84.7465    9.3795 O.2     1  UNL1       -0.2701
     19 N          62.2752   86.2199   11.1745 N.am    1  UNL1       -0.2969
     20 H          61.8935   86.3232   12.0761 H       1  UNL1        0.1501
     21 C          62.2732   87.3787   10.2220 C.3     1  UNL1        0.1166
     22 C          61.1383   87.5546    9.2571 C.ar    1  UNL1       -0.0026
     23 C          60.6593   88.9319    8.9056 C.ar    1  UNL1       -0.0026
     24 C          59.5244   89.1077    7.9407 C.ar    1  UNL1       -0.0003
     25 C          58.8684   87.9062    7.3274 C.ar    1  UNL1       -0.0000
     26 C          59.3473   86.5289    7.6789 C.ar    1  UNL1       -0.0003
     27 C          60.4823   86.3531    8.6439 C.ar    1  UNL1       -0.0026
@<TRIPOS>BOND
     1     1     2    1
     2     2     3   ar
     3     3     4   ar
     4     4     5   ar
     5     5    17    1
     6    17    18    2
     7    17    19   am
     8    19    21    1
     9    21    22    1
    10    22    23   ar
    11    23    24   ar
    12    24    25   ar
    13    25    26   ar
    14    26    27   ar
    15     5     6   ar
    16     6     7   ar
    17     7     8    1
    18     7     9   ar
    19     9    10    1
    20     9    11   ar
    21    11    12   ar
    22    12     2   ar
    23    11     4   ar
    24    27    22   ar
    25     1    13    1
    26     1    14    1
    27    19    20    1
    28     8    15    1
    29    10    16    1
@<TRIPOS>MOLECULE
*****
 27 29 0 0 0
SMALL
GASTEIGER

@<TRIPOS>ATOM
      1 N          59.4046   85.6051    7.2955 N.pl3   1  UNL1       -0.3375
      2 C          60.0864   86.4113    8.3610 C.ar    1  UNL1        0.1568
      3 N          61.0417   85.8838    9.3901 N.ar    1  UNL1       -0.2242
      4 C          61.4783   87.0330   10.2495 C.ar    1  UNL1        0.0967
      5 C          62.4115   87.1123   11.4212 C.ar    1  UNL1        0.0747
      6 C          62.6592   88.4295   12.0949 C.ar    1  UNL1        0.0458
      7 C          61.9737   89.6672   11.5970 C.ar    1  UNL1        0.1682
      8 O          62.2214   90.9843   12.2707 O.3     1  UNL1       -0.5029
      9 C          61.0405   89.5879   10.4253 C.ar    1  UNL1        0.1751
     10 O          60.3550   90.8257    9.9273 O.3     1  UNL1       -0.5025
     11 C          60.7928   88.2708    9.7516 C.ar    1  UNL1        0.0865
     12 S          59.9326   87.8866    8.5844 S.2     1  UNL1       -0.0488
     13 H          59.5705   84.6370    7.2289 H       1  UNL1        0.1442
     14 H          58.7912   86.0441    6.6628 H       1  UNL1        0.1442
     15 H          62.8043   91.0339   13.0026 H       1  UNL1        0.2923
     16 H          60.5097   91.6484   10.3482 H       1  UNL1        0.2923
     17 C          63.0970   85.8745   11.9191 C.2     1  UNL1        0.2477
     18 O          63.6454   85.8307   13.3145 O.2     1  UNL1       -0.2701
     19 N          63.2341   84.6805   11.0215 N.am    1  UNL1       -0.2969
     20 H          62.8742   84.7093   10.1056 H       1  UNL1        0.1501
     21 C          63.9197   83.4427   11.5195 C.3     1  UNL1        0.1166
     22 C          63.1523   82.4290   12.3154 C.ar    1  UNL1       -0.0026
     23 C          63.0645   81.0101   11.8369 C.ar    1  UNL1       -0.0026
     24 C          62.2971   79.9964   12.6328 C.ar    1  UNL1       -0.0003
     25 C          61.6174   80.4016   13.9072 C.ar    1  UNL1       -0.0000
     26 C          61.7052   81.8205   14.3856 C.ar    1  UNL1       -0.0003
     27 C          62.4727   82.8343   13.5897 C.ar    1  UNL1       -0.0026
@<TRIPOS>BOND
     1     1     2    1
     2     2     3   ar
     3     3     4   ar
     4     4     5   ar
     5     5    17    1
     6    17    18    2
     7    17    19   am
     8    19    21    1
     9    21    22    1
    10    22    23   ar
    11    23    24   ar
    12    24    25   ar
    13    25    26   ar
    14    26    27   ar
    15     5     6   ar
    16     6     7   ar
    17     7     8    1
    18     7     9   ar
    19     9    10    1
    20     9    11   ar
    21    11    12   ar
    22    12     2   ar
    23    11     4   ar
    24    27    22   ar
    25     1    13    1
    26     1    14    1
    27    19    20    1
    28     8    15    1
    29    10    16    1
@<TRIPOS>MOLECULE
*****
 27 29 0 0 0
SMALL
GASTEIGER

@<TRIPOS>ATOM
      1 N          62.1602   90.8106    9.6243 N.pl3   1  UNL1       -0.3375
      2 C          63.1417   91.0653   10.7296 C.ar    1  UNL1        0.1568
      3 N          63.1706   90.3731   12.0600 N.ar    1  UNL1       -0.2242
      4 C          64.3134   90.9369   12.8512 C.ar    1  UNL1        0.0967
      5 C          64.8247   90.6371   14.2291 C.ar    1  UNL1        0.0747
      6 C          66.0135   91.3781   14.7657 C.ar    1  UNL1        0.0458
      7 C          66.6909   92.4189   13.9243 C.ar    1  UNL1        0.1682
      8 O          67.8796   93.1599   14.4609 O.3     1  UNL1       -0.5029
      9 C          66.1795   92.7187   12.5464 C.ar    1  UNL1        0.1751
     10 O          66.8569   93.7595   11.7050 O.3     1  UNL1       -0.5025
     11 C          64.9908   91.9777   12.0099 C.ar    1  UNL1        0.0865
     12 S          64.2666   92.0571   10.6986 S.2     1  UNL1       -0.0488
     13 H          61.4531   90.1354    9.7398 H       1  UNL1        0.1442
     14 H          62.2231   91.3186    8.7833 H       1  UNL1        0.1442
     15 H          68.1990   92.9727   15.3216 H       1  UNL1        0.2923
     16 H          67.5994   94.2224   12.0402 H       1  UNL1        0.2923
     17 C          64.1474   89.5963   15.0705 C.2     1  UNL1        0.2477
     18 O          63.1238   90.0043   16.0882 O.2     1  UNL1       -0.2701
     19 N          64.4936   88.1475   14.8941 N.am    1  UNL1       -0.2969
     20 H          65.1655   87.8797   14.2262 H       1  UNL1        0.1501
     21 C          63.8163   87.1067   15.7355 C.3     1  UNL1        0.1166
     22 C          63.7420   85.6871   15.2568 C.ar    1  UNL1       -0.0026
     23 C          62.6647   84.7781   15.7696 C.ar    1  UNL1       -0.0026
     24 C          62.5904   83.3585   15.2908 C.ar    1  UNL1       -0.0003
     25 C          63.5936   82.8479   14.2993 C.ar    1  UNL1       -0.0000
     26 C          64.6709   83.7569   13.7865 C.ar    1  UNL1       -0.0003
     27 C          64.7451   85.1766   14.2653 C.ar    1  UNL1       -0.0026
@<TRIPOS>BOND
     1     1     2    1
     2     2     3   ar
     3     3     4   ar
     4     4     5   ar
     5     5    17    1
     6    17    18    2
     7    17    19   am
     8    19    21    1
     9    21    22    1
    10    22    23   ar
    11    23    24   ar
    12    24    25   ar
    13    25    26   ar
    14    26    27   ar
    15     5     6   ar
    16     6     7   ar
    17     7     8    1
    18     7     9   ar
    19     9    10    1
    20     9    11   ar
    21    11    12   ar
    22    12     2   ar
    23    11     4   ar
    24    27    22   ar
    25     1    13    1
    26     1    14    1
    27    19    20    1
    28     8    15    1
    29    10    16    1
@<TRIPOS>MOLECULE
*****
 27 29 0 0 0
SMALL
GASTEIGER

@<TRIPOS>ATOM
      1 N          63.2616   84.7373   13.0480 N.pl3   1  UNL1       -0.3375
      2 C          62.7291   85.8502   12.1948 C.ar    1  UNL1        0.1568
      3 N          63.1230   87.2949   12.2833 N.ar    1  UNL1       -0.2242
      4 C          62.3466   88.0514   11.2465 C.ar    1  UNL1        0.0967
      5 C          62.3224   89.5037   10.8723 C.ar    1  UNL1        0.0747
      6 C          61.4243   89.9791    9.7688 C.ar    1  UNL1        0.0458
      7 C          60.5504   89.0020    9.0396 C.ar    1  UNL1        0.1682
      8 O          59.6524   89.4772    7.9362 O.3     1  UNL1       -0.5029
      9 C          60.5747   87.5496    9.4139 C.ar    1  UNL1        0.1751
     10 O          59.7008   86.5725    8.6848 O.3     1  UNL1       -0.5025
     11 C          61.4727   87.0743   10.5174 C.ar    1  UNL1        0.0865
     12 S          61.7091   85.7139   11.1035 S.2     1  UNL1       -0.0488
     13 H          63.9330   84.9275   13.7424 H       1  UNL1        0.1442
     14 H          62.9396   83.8167   12.9135 H       1  UNL1        0.1442
     15 H          59.6372   90.3844    7.7024 H       1  UNL1        0.2923
     16 H          59.1398   86.8694    7.9955 H       1  UNL1        0.2923
     17 C          63.1962   90.4808   11.6015 C.2     1  UNL1        0.2477
     18 O          63.1507   90.5554   13.0989 O.2     1  UNL1       -0.2701
     19 N          64.1156   91.3834   10.8331 N.am    1  UNL1       -0.2969
     20 H          64.1454   91.3344    9.8503 H       1  UNL1        0.1501
     21 C          64.9894   92.3605   11.5623 C.3     1  UNL1        0.1166
     22 C          65.9701   93.2026   10.8014 C.ar    1  UNL1       -0.0026
     23 C          67.1075   92.5533   10.0702 C.ar    1  UNL1       -0.0026
     24 C          68.0882   93.3954    9.3093 C.ar    1  UNL1       -0.0003
     25 C          67.9316   94.8869    9.2796 C.ar    1  UNL1       -0.0000
     26 C          66.7942   95.5363   10.0108 C.ar    1  UNL1       -0.0003
     27 C          65.8134   94.6941   10.7717 C.ar    1  UNL1       -0.0026
@<TRIPOS>BOND
     1     1     2    1
     2     2     3   ar
     3     3     4   ar
     4     4     5   ar
     5     5    17    1
     6    17    18    2
     7    17    19   am
     8    19    21    1
     9    21    22    1
    10    22    23   ar
    11    23    24   ar
    12    24    25   ar
    13    25    26   ar
    14    26    27   ar
    15     5     6   ar
    16     6     7   ar
    17     7     8    1
    18     7     9   ar
    19     9    10    1
    20     9    11   ar
    21    11    12   ar
    22    12     2   ar
    23    11     4   ar
    24    27    22   ar
    25     1    13    1
    26     1    14    1
    27    19    20    1
    28     8    15    1
    29    10    16    1
@<TRIPOS>MOLECULE
*****
 27 29 0 0 0
SMALL
GASTEIGER

@<TRIPOS>ATOM
      1 N          61.1689   87.6514    9.2986 N.pl3   1  UNL1       -0.3375
      2 C          61.9038   87.2106   10.5297 C.ar    1  UNL1        0.1568
      3 N          62.4969   88.1112   11.5724 N.ar    1  UNL1       -0.2242
      4 C          63.1343   87.2490   12.6214 C.ar    1  UNL1        0.0967
      5 C          63.8703   87.5840   13.8847 C.ar    1  UNL1        0.0747
      6 C          64.4071   86.4855   14.7538 C.ar    1  UNL1        0.0458
      7 C          64.2079   85.0520   14.3595 C.ar    1  UNL1        0.1682
      8 O          64.7447   83.9536   15.2285 O.3     1  UNL1       -0.5029
      9 C          63.4718   84.7171   13.0961 C.ar    1  UNL1        0.1751
     10 O          63.2726   83.2836   12.7018 O.3     1  UNL1       -0.5025
     11 C          62.9350   85.8155   12.2271 C.ar    1  UNL1        0.0865
     12 S          62.1746   85.7918   10.9344 S.2     1  UNL1       -0.0488
     13 H          61.0410   88.6108    9.1187 H       1  UNL1        0.1442
     14 H          60.8145   86.9813    8.6705 H       1  UNL1        0.1442
     15 H          65.2044   84.1628   16.0177 H       1  UNL1        0.2923
     16 H          63.6079   82.5974   13.2446 H       1  UNL1        0.2923
     17 C          64.0695   89.0174   14.2791 C.2     1  UNL1        0.2477
     18 O          63.8980   89.4324   15.7102 O.2     1  UNL1       -0.2701
     19 N          64.4403   90.0360   13.2421 N.am    1  UNL1       -0.2969
     20 H          64.5528   89.7636   12.3027 H       1  UNL1        0.1501
     21 C          64.6395   91.4694   13.6364 C.3     1  UNL1        0.1166
     22 C          65.9260   91.8993   14.2767 C.ar    1  UNL1       -0.0026
     23 C          65.9288   92.4047   15.6890 C.ar    1  UNL1       -0.0026
     24 C          67.2153   92.8346   16.3292 C.ar    1  UNL1       -0.0003
     25 C          68.4992   92.7591   15.5572 C.ar    1  UNL1       -0.0000
     26 C          68.4965   92.2537   14.1449 C.ar    1  UNL1       -0.0003
     27 C          67.2099   91.8238   13.5047 C.ar    1  UNL1       -0.0026
@<TRIPOS>BOND
     1     1     2    1
     2     2     3   ar
     3     3     4   ar
     4     4     5   ar
     5     5    17    1
     6    17    18    2
     7    17    19   am
     8    19    21    1
     9    21    22    1
    10    22    23   ar
    11    23    24   ar
    12    24    25   ar
    13    25    26   ar
    14    26    27   ar
    15     5     6   ar
    16     6     7   ar
    17     7     8    1
    18     7     9   ar
    19     9    10    1
    20     9    11   ar
    21    11    12   ar
    22    12     2   ar
    23    11     4   ar
    24    27    22   ar
    25     1    13    1
    26     1    14    1
    27    19    20    1
    28     8    15    1
    29    10    16    1
