@<TRIPOS>MOLECULE
*****
 47 50 0 0 0
SMALL
GASTEIGER

@<TRIPOS>ATOM
      1 N          63.3308   89.5042   12.6225 N.ar    1  UNL1       -0.2470
      2 C          62.5120   89.0699   11.4431 C.ar    1  UNL1        0.2654
      3 O          61.9102   90.0958   10.5292 O.2     1  UNL1       -0.2668
      4 C          62.2951   87.6096   11.1777 C.ar    1  UNL1        0.0703
      5 C          62.8969   86.5837   12.0917 C.ar    1  UNL1        0.0465
      6 C          62.6670   85.5574   11.7922 C.3     1  UNL1        0.0503
      7 N          63.7156   87.0180   13.2710 N.ar    1  UNL1       -0.2806
      8 C          63.9326   88.4783   13.5364 C.ar    1  UNL1        0.3338
      9 O          64.7514   88.9127   14.7158 O.2     1  UNL1       -0.2462
     10 C          61.4763   87.1752    9.9983 C.ar    1  UNL1        0.0362
     11 C          60.0257   87.5477    9.9143 C.ar    1  UNL1        0.0026
     12 C          59.2069   87.1133    8.7350 C.ar    1  UNL1        0.0033
     13 C          59.8386   86.3064    7.6396 C.ar    1  UNL1        0.0392
     14 C          61.2892   85.9339    7.7236 C.ar    1  UNL1        0.1660
     15 C          62.1080   86.3683    8.9030 C.ar    1  UNL1        0.1739
     16 F          63.5586   85.9958    8.9870 F       1  UNL1       -0.2010
     17 O          61.9210   85.1270    6.6283 O.3     1  UNL1       -0.4692
     18 C          61.1291   84.0624    5.9288 C.3     1  UNL1        0.2526
     19 C          63.5478   90.9646   12.8879 C.3     1  UNL1        0.1337
     20 C          64.8795   91.5901   12.5960 C.3     1  UNL1        0.1000
     21 C          65.8281   91.8926   13.7180 C.ar    1  UNL1       -0.0061
     22 C          67.3079   91.8785   13.4733 C.ar    1  UNL1       -0.0029
     23 C          68.2565   92.1810   14.5952 C.ar    1  UNL1       -0.0003
     24 C          67.7252   92.4976   15.9618 C.ar    1  UNL1       -0.0000
     25 C          66.2454   92.5117   16.2065 C.ar    1  UNL1       -0.0003
     26 C          65.2969   92.2092   15.0846 C.ar    1  UNL1       -0.0029
     27 N          65.2626   91.9132   11.1823 N.3     1  UNL1       -0.2935
     28 H          66.2350   91.6273   11.0680 H       1  UNL1        0.1236
     29 C          65.1645   93.3241   10.6824 C.3     1  UNL1        0.0694
     30 C          65.9882   94.4042   11.3187 C.3     1  UNL1        0.0287
     31 C          66.8069   95.3253   10.4634 C.3     1  UNL1        0.1110
     32 C          67.6148   94.7730    9.3267 C.2     1  UNL1        0.3171
     33 O          67.2538   95.1187    7.9124 O.2     1  UNL1       -0.2501
     34 C          68.7323   92.4309    9.2025 C.3     1  UNL1        0.2556
     35 O          68.7839   93.8752    9.6041 O.3     1  UNL1       -0.4444
     36 C          64.3175   85.9921   14.1850 C.3     1  UNL1        0.1391
     37 C          63.8111   84.5803   14.1646 C.ar    1  UNL1        0.0319
     38 C          64.3405   83.6082   13.1522 C.ar    1  UNL1        0.1379
     39 F          65.0910   83.8040   12.3815 F       1  UNL1       -0.2044
     40 C          63.8341   82.1964   13.1318 C.ar    1  UNL1        0.0294
     41 C          62.7984   81.7567   14.1237 C.ar    1  UNL1        0.0022
     42 C          62.2690   82.7287   15.1361 C.ar    1  UNL1        0.0037
     43 C          62.7754   84.1406   15.1565 C.ar    1  UNL1        0.0714
     44 C          62.2460   85.1126   16.1689 C.3     1  UNL1        0.4184
     45 F          61.7167   86.0846   17.1812 F       1  UNL1       -0.1659
     46 F          60.8912   85.0411   15.5291 F       1  UNL1       -0.1659
     47 F          63.6008   85.1841   16.8086 F       1  UNL1       -0.1659
@<TRIPOS>BOND
     1    34    35    1
     2    35    32    1
     3    32    33    2
     4    32    31    1
     5    31    30    1
     6    30    29    1
     7    29    27    1
     8    27    20    1
     9    20    19    1
    10    19     1    1
    11     1     2   ar
    12     2     3    2
    13     2     4   ar
    14     4    10    1
    15    10    11   ar
    16    11    12   ar
    17    12    13   ar
    18    13    14   ar
    19    14    17    1
    20    17    18    1
    21    14    15   ar
    22    15    16    1
    23     4     5   ar
    24     5     6    1
    25     5     7   ar
    26     7    36    1
    27    36    37    1
    28    37    38   ar
    29    38    39    1
    30    38    40   ar
    31    40    41   ar
    32    41    42   ar
    33    42    43   ar
    34    43    44    1
    35    44    45    1
    36    44    46    1
    37    44    47    1
    38     7     8   ar
    39     8     9    2
    40    20    21    1
    41    21    22   ar
    42    22    23   ar
    43    23    24   ar
    44    24    25   ar
    45    25    26   ar
    46     8     1   ar
    47    26    21   ar
    48    15    10   ar
    49    43    37   ar
    50    27    28    1
@<TRIPOS>MOLECULE
*****
 47 50 0 0 0
SMALL
GASTEIGER

@<TRIPOS>ATOM
      1 N          61.7340   87.1554   11.7489 N.ar    1  UNL1       -0.2470
      2 C          62.1382   88.3352   12.5823 C.ar    1  UNL1        0.2654
      3 O          61.4267   89.6459   12.4217 O.2     1  UNL1       -0.2668
      4 C          63.2540   88.2043   13.5762 C.ar    1  UNL1        0.0703
      5 C          63.9655   86.8936   13.7368 C.ar    1  UNL1        0.0465
      6 C          64.7571   86.9267   14.4905 C.3     1  UNL1        0.0503
      7 N          63.5613   85.7138   12.9034 N.ar    1  UNL1       -0.2806
      8 C          62.4455   85.8447   11.9095 C.ar    1  UNL1        0.3338
      9 O          62.0413   84.6648   11.0760 O.2     1  UNL1       -0.2462
     10 C          63.6582   89.3842   14.4097 C.ar    1  UNL1        0.0362
     11 C          63.2861   89.4395   15.8617 C.ar    1  UNL1        0.0026
     12 C          63.6903   90.6193   16.6951 C.ar    1  UNL1        0.0033
     13 C          64.4668   91.7438   16.0765 C.ar    1  UNL1        0.0392
     14 C          64.8389   91.6885   14.6245 C.ar    1  UNL1        0.1660
     15 C          64.4346   90.5087   13.7910 C.ar    1  UNL1        0.1739
     16 F          64.8068   90.4534   12.3390 F       1  UNL1       -0.2010
     17 O          65.6153   92.8130   14.0059 O.3     1  UNL1       -0.4692
     18 C          67.0190   92.5825   13.5302 C.3     1  UNL1        0.2526
     19 C          60.6182   87.2862   10.7549 C.3     1  UNL1        0.1337
     20 C          60.9250   87.5936    9.3192 C.3     1  UNL1        0.1000
     21 C          61.3373   86.4923    8.3879 C.ar    1  UNL1       -0.0061
     22 C          60.3325   85.8826    7.4560 C.ar    1  UNL1       -0.0029
     23 C          60.7449   84.7814    6.5248 C.ar    1  UNL1       -0.0003
     24 C          62.1620   84.2899    6.5255 C.ar    1  UNL1       -0.0000
     25 C          63.1669   84.8996    7.4574 C.ar    1  UNL1       -0.0003
     26 C          62.7545   86.0008    8.3886 C.ar    1  UNL1       -0.0029
     27 N          60.8194   89.0023    8.8147 N.3     1  UNL1       -0.2935
     28 H          60.9752   89.6143    9.6156 H       1  UNL1        0.1236
     29 C          59.5572   89.4690    8.1521 C.3     1  UNL1        0.0694
     30 C          59.3931   89.3284    6.6677 C.3     1  UNL1        0.0287
     31 C          59.6522   90.5018    5.7700 C.3     1  UNL1        0.1110
     32 C          58.5038   91.3040    5.2339 C.2     1  UNL1        0.3171
     33 O          57.0941   90.8633    5.4958 O.2     1  UNL1       -0.2501
     34 C          59.9555   92.6180    3.5263 C.3     1  UNL1        0.2556
     35 O          58.7649   92.5470    4.4360 O.3     1  UNL1       -0.4444
     36 C          64.2728   84.4031   13.0640 C.3     1  UNL1        0.1391
     37 C          63.4855   83.1319   13.1830 C.ar    1  UNL1        0.0319
     38 C          63.5655   82.0959   12.1012 C.ar    1  UNL1        0.1379
     39 F          64.1569   82.1478   11.1829 F       1  UNL1       -0.2044
     40 C          62.7782   80.8248   12.2202 C.ar    1  UNL1        0.0294
     41 C          61.9107   80.5895   13.4212 C.ar    1  UNL1        0.0022
     42 C          61.8307   81.6255   14.5030 C.ar    1  UNL1        0.0037
     43 C          62.6180   82.8967   14.3840 C.ar    1  UNL1        0.0714
     44 C          62.5379   83.9326   15.4658 C.3     1  UNL1        0.4184
     45 F          62.4578   84.9685   16.5476 F       1  UNL1       -0.1659
     46 F          61.2426   84.4287   14.8949 F       1  UNL1       -0.1659
     47 F          63.8333   83.4365   16.0367 F       1  UNL1       -0.1659
@<TRIPOS>BOND
     1    34    35    1
     2    35    32    1
     3    32    33    2
     4    32    31    1
     5    31    30    1
     6    30    29    1
     7    29    27    1
     8    27    20    1
     9    20    19    1
    10    19     1    1
    11     1     2   ar
    12     2     3    2
    13     2     4   ar
    14     4    10    1
    15    10    11   ar
    16    11    12   ar
    17    12    13   ar
    18    13    14   ar
    19    14    17    1
    20    17    18    1
    21    14    15   ar
    22    15    16    1
    23     4     5   ar
    24     5     6    1
    25     5     7   ar
    26     7    36    1
    27    36    37    1
    28    37    38   ar
    29    38    39    1
    30    38    40   ar
    31    40    41   ar
    32    41    42   ar
    33    42    43   ar
    34    43    44    1
    35    44    45    1
    36    44    46    1
    37    44    47    1
    38     7     8   ar
    39     8     9    2
    40    20    21    1
    41    21    22   ar
    42    22    23   ar
    43    23    24   ar
    44    24    25   ar
    45    25    26   ar
    46     8     1   ar
    47    26    21   ar
    48    15    10   ar
    49    43    37   ar
    50    27    28    1
@<TRIPOS>MOLECULE
*****
 47 50 0 0 0
SMALL
GASTEIGER

@<TRIPOS>ATOM
      1 N          61.6431   87.3413   11.8243 N.ar    1  UNL1       -0.2470
      2 C          62.1042   88.5255   12.6212 C.ar    1  UNL1        0.2654
      3 O          61.4412   89.8582   12.4362 O.2     1  UNL1       -0.2668
      4 C          63.2282   88.3769   13.6033 C.ar    1  UNL1        0.0703
      5 C          63.8912   87.0441   13.7884 C.ar    1  UNL1        0.0465
      6 C          64.6941   87.0658   14.5304 C.3     1  UNL1        0.0503
      7 N          63.4301   85.8600   12.9914 N.ar    1  UNL1       -0.2806
      8 C          62.3061   86.0086   12.0094 C.ar    1  UNL1        0.3338
      9 O          61.8450   84.8244   11.2123 O.2     1  UNL1       -0.2462
     10 C          63.6893   89.5611   14.4003 C.ar    1  UNL1        0.0362
     11 C          63.3652   89.6535   15.8620 C.ar    1  UNL1        0.0026
     12 C          63.8262   90.8376   16.6590 C.ar    1  UNL1        0.0033
     13 C          64.6114   91.9293   15.9944 C.ar    1  UNL1        0.0392
     14 C          64.9355   91.8369   14.5328 C.ar    1  UNL1        0.1660
     15 C          64.4744   90.6527   13.7357 C.ar    1  UNL1        0.1739
     16 F          64.7985   90.5603   12.2741 F       1  UNL1       -0.2010
     17 O          65.7207   92.9286   13.8681 O.3     1  UNL1       -0.4692
     18 C          67.1334   93.2011   14.2921 C.3     1  UNL1        0.2526
     19 C          60.5191   87.4899   10.8422 C.3     1  UNL1        0.1337
     20 C          60.8164   87.7640    9.3978 C.3     1  UNL1        0.1000
     21 C          61.3167   86.6611    8.5126 C.ar    1  UNL1       -0.0061
     22 C          62.7436   86.2094    8.6109 C.ar    1  UNL1       -0.0029
     23 C          63.2438   85.1066    7.7258 C.ar    1  UNL1       -0.0003
     24 C          62.3171   84.4555    6.7422 C.ar    1  UNL1       -0.0000
     25 C          60.8902   84.9073    6.6438 C.ar    1  UNL1       -0.0003
     26 C          60.3900   86.0101    7.5290 C.ar    1  UNL1       -0.0029
     27 N          60.6135   89.1410    8.8385 N.3     1  UNL1       -0.2935
     28 H          60.4837   89.7658    9.6341 H       1  UNL1        0.1236
     29 C          59.4817   89.4061    7.8904 C.3     1  UNL1        0.0694
     30 C          59.7662   89.8922    6.5001 C.3     1  UNL1        0.0287
     31 C          58.6338   90.1719    5.5570 C.3     1  UNL1        0.1110
     32 C          58.3791   91.5729    5.0855 C.2     1  UNL1        0.3171
     33 O          56.9771   92.1035    5.0337 O.2     1  UNL1       -0.2501
     34 C          59.7569   92.7307    3.2117 C.3     1  UNL1        0.2556
     35 O          59.5263   92.4433    4.6658 O.3     1  UNL1       -0.4444
     36 C          64.0931   84.5273   13.1765 C.3     1  UNL1        0.1391
     37 C          63.2598   83.2875   13.3128 C.ar    1  UNL1        0.0319
     38 C          62.3594   83.1159   14.5002 C.ar    1  UNL1        0.1379
     39 F          62.2219   83.8163   15.3285 F       1  UNL1       -0.2044
     40 C          61.5261   81.8762   14.6366 C.ar    1  UNL1        0.0294
     41 C          61.5932   80.8080   13.5856 C.ar    1  UNL1        0.0022
     42 C          62.4936   80.9796   12.3983 C.ar    1  UNL1        0.0037
     43 C          63.3269   82.2194   12.2619 C.ar    1  UNL1        0.0714
     44 C          64.2273   82.3909   11.0745 C.3     1  UNL1        0.4184
     45 F          65.1278   82.5625    9.8872 F       1  UNL1       -0.1659
     46 F          65.4240   82.1583   11.9484 F       1  UNL1       -0.1659
     47 F          63.0306   82.6236   10.2006 F       1  UNL1       -0.1659
@<TRIPOS>BOND
     1    34    35    1
     2    35    32    1
     3    32    33    2
     4    32    31    1
     5    31    30    1
     6    30    29    1
     7    29    27    1
     8    27    20    1
     9    20    19    1
    10    19     1    1
    11     1     2   ar
    12     2     3    2
    13     2     4   ar
    14     4    10    1
    15    10    11   ar
    16    11    12   ar
    17    12    13   ar
    18    13    14   ar
    19    14    17    1
    20    17    18    1
    21    14    15   ar
    22    15    16    1
    23     4     5   ar
    24     5     6    1
    25     5     7   ar
    26     7    36    1
    27    36    37    1
    28    37    38   ar
    29    38    39    1
    30    38    40   ar
    31    40    41   ar
    32    41    42   ar
    33    42    43   ar
    34    43    44    1
    35    44    45    1
    36    44    46    1
    37    44    47    1
    38     7     8   ar
    39     8     9    2
    40    20    21    1
    41    21    22   ar
    42    22    23   ar
    43    23    24   ar
    44    24    25   ar
    45    25    26   ar
    46     8     1   ar
    47    26    21   ar
    48    15    10   ar
    49    43    37   ar
    50    27    28    1
@<TRIPOS>MOLECULE
*****
 47 50 0 0 0
SMALL
GASTEIGER

@<TRIPOS>ATOM
      1 N          63.0512   90.5442   11.3200 N.ar    1  UNL1       -0.2470
      2 C          62.8997   89.6897   12.5434 C.ar    1  UNL1        0.2654
      3 O          61.8856   88.5846   12.5655 O.2     1  UNL1       -0.2668
      4 C          63.7622   89.9403   13.7447 C.ar    1  UNL1        0.0703
      5 C          64.7763   91.0453   13.7226 C.ar    1  UNL1        0.0465
      6 C          65.3406   91.1260   14.6558 C.3     1  UNL1        0.0503
      7 N          64.9278   91.8998   12.4992 N.ar    1  UNL1       -0.2806
      8 C          64.0653   91.6493   11.2979 C.ar    1  UNL1        0.3338
      9 O          64.2168   92.5038   10.0744 O.2     1  UNL1       -0.2462
     10 C          63.6107   89.0857   14.9682 C.ar    1  UNL1        0.0362
     11 C          63.1442   89.6963   16.2564 C.ar    1  UNL1        0.0026
     12 C          62.9926   88.8419   17.4799 C.ar    1  UNL1        0.0033
     13 C          63.3077   87.3767   17.4152 C.ar    1  UNL1        0.0392
     14 C          63.7742   86.7661   16.1270 C.ar    1  UNL1        0.1660
     15 C          63.9257   87.6206   14.9035 C.ar    1  UNL1        0.1739
     16 F          64.3922   87.0100   13.6153 F       1  UNL1       -0.2010
     17 O          64.0892   85.3010   16.0622 O.3     1  UNL1       -0.4692
     18 C          63.1313   84.3565   15.3987 C.3     1  UNL1        0.2526
     19 C          62.1886   90.2937   10.1186 C.3     1  UNL1        0.1337
     20 C          61.8943   88.8878    9.6867 C.3     1  UNL1        0.1000
     21 C          60.7378   88.6106    8.7723 C.ar    1  UNL1       -0.0061
     22 C          60.1800   89.7076    7.9148 C.ar    1  UNL1       -0.0029
     23 C          59.0237   89.4304    7.0006 C.ar    1  UNL1       -0.0003
     24 C          58.4251   88.0562    6.9438 C.ar    1  UNL1       -0.0000
     25 C          58.9829   86.9591    7.8013 C.ar    1  UNL1       -0.0003
     26 C          60.1393   87.2364    8.7156 C.ar    1  UNL1       -0.0029
     27 N          62.7562   87.7589   10.1691 N.3     1  UNL1       -0.2935
     28 H          63.3393   87.4763    9.3813 H       1  UNL1        0.1236
     29 C          62.1241   86.5107   10.7098 C.3     1  UNL1        0.0694
     30 C          62.7142   85.1702   10.3858 C.3     1  UNL1        0.0287
     31 C          62.8618   84.1358   11.4620 C.3     1  UNL1        0.1110
     32 C          63.5582   82.8405   11.1667 C.2     1  UNL1        0.3171
     33 O          64.8300   82.8370   10.3715 O.2     1  UNL1       -0.2501
     34 C          62.2484   81.5110   12.9742 C.3     1  UNL1        0.2556
     35 O          62.9828   81.5487   11.6668 O.3     1  UNL1       -0.4444
     36 C          65.9419   93.0049   12.4771 C.3     1  UNL1        0.1391
     37 C          66.7975   93.2135   11.2629 C.ar    1  UNL1        0.0319
     38 C          67.7153   92.1229   10.7958 C.ar    1  UNL1        0.1379
     39 F          67.8513   91.1376   11.2501 F       1  UNL1       -0.2044
     40 C          68.5709   92.3315    9.5815 C.ar    1  UNL1        0.0294
     41 C          68.5088   93.6307    8.8344 C.ar    1  UNL1        0.0022
     42 C          67.5910   94.7213    9.3015 C.ar    1  UNL1        0.0037
     43 C          66.7353   94.5127   10.5158 C.ar    1  UNL1        0.0714
     44 C          65.8176   95.6033   10.9829 C.3     1  UNL1        0.4184
     45 F          64.8998   96.6939   11.4500 F       1  UNL1       -0.1659
     46 F          66.5450   95.6541   12.2937 F       1  UNL1       -0.1659
     47 F          65.0902   95.5526    9.6721 F       1  UNL1       -0.1659
@<TRIPOS>BOND
     1    34    35    1
     2    35    32    1
     3    32    33    2
     4    32    31    1
     5    31    30    1
     6    30    29    1
     7    29    27    1
     8    27    20    1
     9    20    19    1
    10    19     1    1
    11     1     2   ar
    12     2     3    2
    13     2     4   ar
    14     4    10    1
    15    10    11   ar
    16    11    12   ar
    17    12    13   ar
    18    13    14   ar
    19    14    17    1
    20    17    18    1
    21    14    15   ar
    22    15    16    1
    23     4     5   ar
    24     5     6    1
    25     5     7   ar
    26     7    36    1
    27    36    37    1
    28    37    38   ar
    29    38    39    1
    30    38    40   ar
    31    40    41   ar
    32    41    42   ar
    33    42    43   ar
    34    43    44    1
    35    44    45    1
    36    44    46    1
    37    44    47    1
    38     7     8   ar
    39     8     9    2
    40    20    21    1
    41    21    22   ar
    42    22    23   ar
    43    23    24   ar
    44    24    25   ar
    45    25    26   ar
    46     8     1   ar
    47    26    21   ar
    48    15    10   ar
    49    43    37   ar
    50    27    28    1
@<TRIPOS>MOLECULE
*****
 47 50 0 0 0
SMALL
GASTEIGER

@<TRIPOS>ATOM
      1 N          63.6039   90.2579   11.9704 N.ar    1  UNL1       -0.2470
      2 C          62.7264   89.6372   10.9242 C.ar    1  UNL1        0.2654
      3 O          62.1454   90.4861    9.8325 O.2     1  UNL1       -0.2668
      4 C          62.4298   88.1676   10.9697 C.ar    1  UNL1        0.0703
      5 C          63.0108   87.3186   12.0614 C.ar    1  UNL1        0.0465
      6 C          62.7213   86.2669   11.9846 C.3     1  UNL1        0.0503
      7 N          63.8884   87.9393   13.1076 N.ar    1  UNL1       -0.2806
      8 C          64.1849   89.4090   13.0621 C.ar    1  UNL1        0.3338
      9 O          65.0625   90.0298   14.1083 O.2     1  UNL1       -0.2462
     10 C          61.5522   87.5468    9.9235 C.ar    1  UNL1        0.0362
     11 C          60.0773   87.8203    9.9230 C.ar    1  UNL1        0.0026
     12 C          59.1997   87.1996    8.8769 C.ar    1  UNL1        0.0033
     13 C          59.7970   86.3052    7.8312 C.ar    1  UNL1        0.0392
     14 C          61.2718   86.0316    7.8316 C.ar    1  UNL1        0.1660
     15 C          62.1494   86.6524    8.8779 C.ar    1  UNL1        0.1739
     16 F          63.6242   86.3789    8.8783 F       1  UNL1       -0.2010
     17 O          61.8690   85.1373    6.7860 O.3     1  UNL1       -0.4692
     18 C          60.9960   84.1794    6.0309 C.3     1  UNL1        0.2526
     19 C          63.9006   91.7277   11.9249 C.3     1  UNL1        0.1337
     20 C          65.3149   92.2115   12.0489 C.3     1  UNL1        0.1000
     21 C          65.9093   93.0741   10.9753 C.ar    1  UNL1       -0.0061
     22 C          65.4523   94.4938   10.8150 C.ar    1  UNL1       -0.0029
     23 C          66.0467   95.3563    9.7414 C.ar    1  UNL1       -0.0003
     24 C          67.0982   94.7993    8.8281 C.ar    1  UNL1       -0.0000
     25 C          67.5552   93.3796    8.9884 C.ar    1  UNL1       -0.0003
     26 C          66.9608   92.5171   10.0620 C.ar    1  UNL1       -0.0029
     27 N          66.1350   91.8328   13.2464 N.3     1  UNL1       -0.2935
     28 H          65.7632   92.3600   14.0365 H       1  UNL1        0.1236
     29 C          67.6189   92.0521   13.2391 C.3     1  UNL1        0.0694
     30 C          68.4690   91.4663   14.3273 C.3     1  UNL1        0.0287
     31 C          68.7745   92.2711   15.5557 C.3     1  UNL1        0.1110
     32 C          67.9501   93.4804   15.8843 C.2     1  UNL1        0.3171
     33 O          68.6151   94.7275   16.3867 O.2     1  UNL1       -0.2501
     34 C          65.6306   92.5196   16.5524 C.3     1  UNL1        0.2556
     35 O          66.4607   93.4427   15.7105 O.3     1  UNL1       -0.4444
     36 C          64.4693   87.0904   14.1993 C.3     1  UNL1        0.1391
     37 C          63.7205   86.9073   15.4859 C.ar    1  UNL1        0.0319
     38 C          63.4800   88.0818   16.3875 C.ar    1  UNL1        0.1379
     39 F          63.7970   89.1150   16.2210 F       1  UNL1       -0.2044
     40 C          62.7311   87.8987   17.6742 C.ar    1  UNL1        0.0294
     41 C          62.2227   86.5411   18.0594 C.ar    1  UNL1        0.0022
     42 C          62.4631   85.3666   17.1579 C.ar    1  UNL1        0.0037
     43 C          63.2120   85.5497   15.8711 C.ar    1  UNL1        0.0714
     44 C          63.4525   84.3752   14.9697 C.3     1  UNL1        0.4184
     45 F          63.6930   83.2007   14.0682 F       1  UNL1       -0.1659
     46 F          64.8987   84.3659   15.3675 F       1  UNL1       -0.1659
     47 F          62.0063   84.3844   14.5718 F       1  UNL1       -0.1659
@<TRIPOS>BOND
     1    34    35    1
     2    35    32    1
     3    32    33    2
     4    32    31    1
     5    31    30    1
     6    30    29    1
     7    29    27    1
     8    27    20    1
     9    20    19    1
    10    19     1    1
    11     1     2   ar
    12     2     3    2
    13     2     4   ar
    14     4    10    1
    15    10    11   ar
    16    11    12   ar
    17    12    13   ar
    18    13    14   ar
    19    14    17    1
    20    17    18    1
    21    14    15   ar
    22    15    16    1
    23     4     5   ar
    24     5     6    1
    25     5     7   ar
    26     7    36    1
    27    36    37    1
    28    37    38   ar
    29    38    39    1
    30    38    40   ar
    31    40    41   ar
    32    41    42   ar
    33    42    43   ar
    34    43    44    1
    35    44    45    1
    36    44    46    1
    37    44    47    1
    38     7     8   ar
    39     8     9    2
    40    20    21    1
    41    21    22   ar
    42    22    23   ar
    43    23    24   ar
    44    24    25   ar
    45    25    26   ar
    46     8     1   ar
    47    26    21   ar
    48    15    10   ar
    49    43    37   ar
    50    27    28    1
@<TRIPOS>MOLECULE
*****
 47 50 0 0 0
SMALL
GASTEIGER

@<TRIPOS>ATOM
      1 N          63.1541   90.0685   11.1166 N.ar    1  UNL1       -0.2470
      2 C          63.0205   89.2623   12.3745 C.ar    1  UNL1        0.2654
      3 O          62.1840   88.0173   12.3820 O.2     1  UNL1       -0.2668
      4 C          63.7233   89.7013   13.6248 C.ar    1  UNL1        0.0703
      5 C          64.5598   90.9464   13.6172 C.ar    1  UNL1        0.0465
      6 C          65.0186   91.1587   14.5868 C.3     1  UNL1        0.0503
      7 N          64.6935   91.7525   12.3594 N.ar    1  UNL1       -0.2806
      8 C          63.9906   91.3136   11.1091 C.ar    1  UNL1        0.3338
      9 O          64.1242   92.1197    9.8511 O.2     1  UNL1       -0.2462
     10 C          63.5897   88.8951   14.8827 C.ar    1  UNL1        0.0362
     11 C          63.0999   89.5461   16.1422 C.ar    1  UNL1        0.0026
     12 C          62.9663   88.7400   17.4001 C.ar    1  UNL1        0.0033
     13 C          63.3225   87.2829   17.3985 C.ar    1  UNL1        0.0392
     14 C          63.8122   86.6319   16.1390 C.ar    1  UNL1        0.1660
     15 C          63.9458   87.4380   14.8811 C.ar    1  UNL1        0.1739
     16 F          64.4356   86.7870   13.6216 F       1  UNL1       -0.2010
     17 O          64.1684   85.1748   16.1374 O.3     1  UNL1       -0.4692
     18 C          63.3971   84.2152   15.2805 C.3     1  UNL1        0.2526
     19 C          62.4512   89.6296    9.8662 C.3     1  UNL1        0.1337
     20 C          61.5477   88.4326    9.8946 C.3     1  UNL1        0.1000
     21 C          62.1260   87.0534    9.7775 C.ar    1  UNL1       -0.0061
     22 C          62.2049   86.1683   10.9859 C.ar    1  UNL1       -0.0029
     23 C          62.7832   84.7892   10.8688 C.ar    1  UNL1       -0.0003
     24 C          63.2824   84.2953    9.5434 C.ar    1  UNL1       -0.0000
     25 C          63.2035   85.1805    8.3350 C.ar    1  UNL1       -0.0003
     26 C          62.6252   86.5595    8.4521 C.ar    1  UNL1       -0.0029
     27 N          60.0659   88.6147   10.0399 N.3     1  UNL1       -0.2935
     28 H          59.8168   88.2722   10.9678 H       1  UNL1        0.1236
     29 C          59.1306   87.9559    9.0696 C.3     1  UNL1        0.0694
     30 C          59.1934   88.3054    7.6123 C.3     1  UNL1        0.0287
     31 C          59.7974   89.6082    7.1788 C.3     1  UNL1        0.1110
     32 C          59.3183   90.2764    5.9242 C.2     1  UNL1        0.3171
     33 O          60.3097   90.7940    4.9246 O.2     1  UNL1       -0.2501
     34 C          57.3426   91.5786    4.8516 C.3     1  UNL1        0.2556
     35 O          57.8479   90.4271    5.6692 O.3     1  UNL1       -0.4444
     36 C          65.5299   92.9976   12.3518 C.3     1  UNL1        0.1391
     37 C          66.5365   93.2183   11.2618 C.ar    1  UNL1        0.0319
     38 C          67.5025   92.1289   10.9012 C.ar    1  UNL1        0.1379
     39 F          67.5744   91.1364   11.3544 F       1  UNL1       -0.2044
     40 C          68.5091   92.3496    9.8112 C.ar    1  UNL1        0.0294
     41 C          68.5496   93.6597    9.0818 C.ar    1  UNL1        0.0022
     42 C          67.5837   94.7491    9.4424 C.ar    1  UNL1        0.0037
     43 C          66.5771   94.5284   10.5325 C.ar    1  UNL1        0.0714
     44 C          65.6111   95.6178   10.8931 C.3     1  UNL1        0.4184
     45 F          64.6452   96.7072   11.2537 F       1  UNL1       -0.1659
     46 F          64.8476   95.3596    9.6281 F       1  UNL1       -0.1659
     47 F          66.3746   95.8760   12.1581 F       1  UNL1       -0.1659
@<TRIPOS>BOND
     1    34    35    1
     2    35    32    1
     3    32    33    2
     4    32    31    1
     5    31    30    1
     6    30    29    1
     7    29    27    1
     8    27    20    1
     9    20    19    1
    10    19     1    1
    11     1     2   ar
    12     2     3    2
    13     2     4   ar
    14     4    10    1
    15    10    11   ar
    16    11    12   ar
    17    12    13   ar
    18    13    14   ar
    19    14    17    1
    20    17    18    1
    21    14    15   ar
    22    15    16    1
    23     4     5   ar
    24     5     6    1
    25     5     7   ar
    26     7    36    1
    27    36    37    1
    28    37    38   ar
    29    38    39    1
    30    38    40   ar
    31    40    41   ar
    32    41    42   ar
    33    42    43   ar
    34    43    44    1
    35    44    45    1
    36    44    46    1
    37    44    47    1
    38     7     8   ar
    39     8     9    2
    40    20    21    1
    41    21    22   ar
    42    22    23   ar
    43    23    24   ar
    44    24    25   ar
    45    25    26   ar
    46     8     1   ar
    47    26    21   ar
    48    15    10   ar
    49    43    37   ar
    50    27    28    1
@<TRIPOS>MOLECULE
*****
 47 50 0 0 0
SMALL
GASTEIGER

@<TRIPOS>ATOM
      1 N          63.5244   89.4899   13.1966 N.ar    1  UNL1       -0.2470
      2 C          63.6984   88.1614   13.8710 C.ar    1  UNL1        0.2654
      3 O          64.0696   88.1003   15.3230 O.2     1  UNL1       -0.2668
      4 C          63.5013   86.8941   13.0933 C.ar    1  UNL1        0.0703
      5 C          63.1300   86.9552   11.6412 C.ar    1  UNL1        0.0465
      6 C          63.0154   85.9668   11.1876 C.3     1  UNL1        0.0503
      7 N          62.9560   88.2837   10.9669 N.ar    1  UNL1       -0.2806
      8 C          63.1532   89.5510   11.7446 C.ar    1  UNL1        0.3338
      9 O          62.9791   90.8796   11.0702 O.2     1  UNL1       -0.2462
     10 C          63.6753   85.5655   13.7676 C.ar    1  UNL1        0.0362
     11 C          64.9962   85.2016   14.3781 C.ar    1  UNL1        0.0026
     12 C          65.1703   83.8732   15.0525 C.ar    1  UNL1        0.0033
     13 C          64.0234   82.9084   15.1163 C.ar    1  UNL1        0.0392
     14 C          62.7025   83.2723   14.5058 C.ar    1  UNL1        0.1660
     15 C          62.5284   84.6009   13.8315 C.ar    1  UNL1        0.1739
     16 F          61.2075   84.9647   13.2210 F       1  UNL1       -0.2010
     17 O          61.5556   82.3077   14.5697 O.3     1  UNL1       -0.4692
     18 C          61.6457   80.9876   13.8631 C.3     1  UNL1        0.2526
     19 C          63.7215   90.7574   13.9743 C.3     1  UNL1        0.1337
     20 C          64.7330   91.7671   13.5189 C.3     1  UNL1        0.1000
     21 C          65.9957   91.9701   14.3029 C.ar    1  UNL1       -0.0061
     22 C          65.9324   92.5161   15.6985 C.ar    1  UNL1       -0.0029
     23 C          67.1950   92.7190   16.4824 C.ar    1  UNL1       -0.0003
     24 C          68.5209   92.3759   15.8707 C.ar    1  UNL1       -0.0000
     25 C          68.5842   91.8299   14.4751 C.ar    1  UNL1       -0.0003
     26 C          67.3216   91.6270   13.6912 C.ar    1  UNL1       -0.0029
     27 N          64.4818   92.5739   12.2795 N.3     1  UNL1       -0.2935
     28 H          63.8770   92.0124   11.6802 H       1  UNL1        0.1236
     29 C          65.6343   93.0242   11.4315 C.3     1  UNL1        0.0694
     30 C          66.2193   94.3917   11.6261 C.3     1  UNL1        0.0287
     31 C          66.5083   95.2599   10.4376 C.3     1  UNL1        0.1110
     32 C          67.4362   94.7759    9.3630 C.2     1  UNL1        0.3171
     33 O          67.1569   95.1053    7.9266 O.2     1  UNL1       -0.2501
     34 C          68.7243   92.5200    9.3213 C.3     1  UNL1        0.2556
     35 O          68.6434   93.9624    9.7249 O.3     1  UNL1       -0.4444
     36 C          62.5848   88.3448    9.5148 C.3     1  UNL1        0.1391
     37 C          61.3309   87.6776    9.0325 C.ar    1  UNL1        0.0319
     38 C          61.4165   86.4402    8.1890 C.ar    1  UNL1        0.1379
     39 F          62.3258   85.9299    7.8596 F       1  UNL1       -0.2044
     40 C          60.1626   85.7731    7.7067 C.ar    1  UNL1        0.0294
     41 C          58.8231   86.3433    8.0679 C.ar    1  UNL1        0.0022
     42 C          58.7374   87.5806    8.9114 C.ar    1  UNL1        0.0037
     43 C          59.9914   88.2478    9.3937 C.ar    1  UNL1        0.0714
     44 C          59.9057   89.4852   10.2372 C.3     1  UNL1        0.4184
     45 F          59.8200   90.7226   11.0807 F       1  UNL1       -0.1659
     46 F          59.7540   88.6375   11.4654 F       1  UNL1       -0.1659
     47 F          60.0574   90.3329    9.0091 F       1  UNL1       -0.1659
@<TRIPOS>BOND
     1    34    35    1
     2    35    32    1
     3    32    33    2
     4    32    31    1
     5    31    30    1
     6    30    29    1
     7    29    27    1
     8    27    20    1
     9    20    19    1
    10    19     1    1
    11     1     2   ar
    12     2     3    2
    13     2     4   ar
    14     4    10    1
    15    10    11   ar
    16    11    12   ar
    17    12    13   ar
    18    13    14   ar
    19    14    17    1
    20    17    18    1
    21    14    15   ar
    22    15    16    1
    23     4     5   ar
    24     5     6    1
    25     5     7   ar
    26     7    36    1
    27    36    37    1
    28    37    38   ar
    29    38    39    1
    30    38    40   ar
    31    40    41   ar
    32    41    42   ar
    33    42    43   ar
    34    43    44    1
    35    44    45    1
    36    44    46    1
    37    44    47    1
    38     7     8   ar
    39     8     9    2
    40    20    21    1
    41    21    22   ar
    42    22    23   ar
    43    23    24   ar
    44    24    25   ar
    45    25    26   ar
    46     8     1   ar
    47    26    21   ar
    48    15    10   ar
    49    43    37   ar
    50    27    28    1
@<TRIPOS>MOLECULE
*****
 47 50 0 0 0
SMALL
GASTEIGER

@<TRIPOS>ATOM
      1 N          63.3696   89.4820   12.7384 N.ar    1  UNL1       -0.2470
      2 C          63.5871   88.1816   13.4537 C.ar    1  UNL1        0.2654
      3 O          64.2642   88.1659   14.7921 O.2     1  UNL1       -0.2668
      4 C          63.1275   86.8970   12.8306 C.ar    1  UNL1        0.0703
      5 C          62.4504   86.9127   11.4922 C.ar    1  UNL1        0.0465
      6 C          62.1638   85.9156   11.1467 C.3     1  UNL1        0.0503
      7 N          62.2330   88.2130   10.7769 N.ar    1  UNL1       -0.2806
      8 C          62.6926   89.4977   11.4000 C.ar    1  UNL1        0.3338
      9 O          62.4751   90.7982   10.6847 O.2     1  UNL1       -0.2462
     10 C          63.3450   85.5965   13.5459 C.ar    1  UNL1        0.0362
     11 C          63.1318   85.5111   15.0282 C.ar    1  UNL1        0.0026
     12 C          63.3492   84.2107   15.7435 C.ar    1  UNL1        0.0033
     13 C          63.7798   82.9956   14.9765 C.ar    1  UNL1        0.0392
     14 C          63.9930   83.0810   13.4941 C.ar    1  UNL1        0.1660
     15 C          63.7756   84.3815   12.7789 C.ar    1  UNL1        0.1739
     16 F          63.9888   84.4669   11.2965 F       1  UNL1       -0.2010
     17 O          64.4237   81.8661   12.7271 O.3     1  UNL1       -0.4692
     18 C          63.3974   80.9904   12.0715 C.3     1  UNL1        0.2526
     19 C          63.8293   90.7668   13.3615 C.3     1  UNL1        0.1337
     20 C          65.0884   91.4252   12.8808 C.3     1  UNL1        0.1000
     21 C          66.1516   91.8179   13.8633 C.ar    1  UNL1       -0.0061
     22 C          65.7688   92.2785   15.2385 C.ar    1  UNL1       -0.0029
     23 C          66.8320   92.6712   16.2210 C.ar    1  UNL1       -0.0003
     24 C          68.2781   92.6034   15.8282 C.ar    1  UNL1       -0.0000
     25 C          68.6609   92.1428   14.4530 C.ar    1  UNL1       -0.0003
     26 C          67.5977   91.7501   13.4705 C.ar    1  UNL1       -0.0029
     27 N          65.2843   91.6908   11.4176 N.3     1  UNL1       -0.2935
     28 H          66.2171   91.3538   11.1794 H       1  UNL1        0.1236
     29 C          65.1817   93.0910   10.8892 C.3     1  UNL1        0.0694
     30 C          66.0671   94.1681   11.4424 C.3     1  UNL1        0.0287
     31 C          66.6805   95.1811   10.5218 C.3     1  UNL1        0.1110
     32 C          67.5305   94.7309    9.3707 C.2     1  UNL1        0.3171
     33 O          67.1852   95.1530    7.9734 O.2     1  UNL1       -0.2501
     34 C          68.6784   92.4029    9.2582 C.3     1  UNL1        0.2556
     35 O          68.7256   93.8586    9.6170 O.3     1  UNL1       -0.4444
     36 C          61.5559   88.2287    9.4385 C.3     1  UNL1        0.1391
     37 C          61.6024   87.0137    8.5601 C.ar    1  UNL1        0.0319
     38 C          62.8522   86.1872    8.4888 C.ar    1  UNL1        0.1379
     39 F          63.7892   86.3636    9.0240 F       1  UNL1       -0.2044
     40 C          62.8987   84.9722    7.6105 C.ar    1  UNL1        0.0294
     41 C          61.6955   84.5836    6.8034 C.ar    1  UNL1        0.0022
     42 C          60.4458   85.4101    6.8747 C.ar    1  UNL1        0.0037
     43 C          60.3992   86.6252    7.7531 C.ar    1  UNL1        0.0714
     44 C          59.1495   87.4516    7.8244 C.3     1  UNL1        0.4184
     45 F          57.8998   88.2781    7.8956 F       1  UNL1       -0.1659
     46 F          59.6608   88.3205    6.7137 F       1  UNL1       -0.1659
     47 F          58.6382   86.5828    8.9350 F       1  UNL1       -0.1659
@<TRIPOS>BOND
     1    34    35    1
     2    35    32    1
     3    32    33    2
     4    32    31    1
     5    31    30    1
     6    30    29    1
     7    29    27    1
     8    27    20    1
     9    20    19    1
    10    19     1    1
    11     1     2   ar
    12     2     3    2
    13     2     4   ar
    14     4    10    1
    15    10    11   ar
    16    11    12   ar
    17    12    13   ar
    18    13    14   ar
    19    14    17    1
    20    17    18    1
    21    14    15   ar
    22    15    16    1
    23     4     5   ar
    24     5     6    1
    25     5     7   ar
    26     7    36    1
    27    36    37    1
    28    37    38   ar
    29    38    39    1
    30    38    40   ar
    31    40    41   ar
    32    41    42   ar
    33    42    43   ar
    34    43    44    1
    35    44    45    1
    36    44    46    1
    37    44    47    1
    38     7     8   ar
    39     8     9    2
    40    20    21    1
    41    21    22   ar
    42    22    23   ar
    43    23    24   ar
    44    24    25   ar
    45    25    26   ar
    46     8     1   ar
    47    26    21   ar
    48    15    10   ar
    49    43    37   ar
    50    27    28    1
@<TRIPOS>MOLECULE
*****
 47 50 0 0 0
SMALL
GASTEIGER

@<TRIPOS>ATOM
      1 N          64.7772   90.6668   13.5360 N.ar    1  UNL1       -0.2470
      2 C          65.8004   91.4231   12.7417 C.ar    1  UNL1        0.2654
      3 O          67.1652   91.6659   13.3147 O.2     1  UNL1       -0.2668
      4 C          65.4589   91.9365   11.3743 C.ar    1  UNL1        0.0703
      5 C          64.0941   91.6936   10.8013 C.ar    1  UNL1        0.0465
      6 C          63.9696   92.1164    9.8005 C.3     1  UNL1        0.0503
      7 N          63.0709   90.9373   11.5956 N.ar    1  UNL1       -0.2806
      8 C          63.4124   90.4239   12.9629 C.ar    1  UNL1        0.3338
      9 O          62.3891   89.6676   13.7573 O.2     1  UNL1       -0.2462
     10 C          66.4822   92.6928   10.5799 C.ar    1  UNL1        0.0362
     11 C          67.6947   91.9850   10.0518 C.ar    1  UNL1        0.0026
     12 C          68.7179   92.7412    9.2574 C.ar    1  UNL1        0.0033
     13 C          68.5287   94.2053    8.9912 C.ar    1  UNL1        0.0392
     14 C          67.3162   94.9131    9.5193 C.ar    1  UNL1        0.1660
     15 C          66.2929   94.1567   10.3137 C.ar    1  UNL1        0.1739
     16 F          65.0805   94.8645   10.8419 F       1  UNL1       -0.2010
     17 O          67.1270   96.3770    9.2532 O.3     1  UNL1       -0.4692
     18 C          65.9047   96.8554    8.5271 C.3     1  UNL1        0.2526
     19 C          65.1187   90.1534   14.9034 C.3     1  UNL1        0.1337
     20 C          64.0258   89.7379   15.8431 C.3     1  UNL1        0.1000
     21 C          63.7418   88.2820   16.0664 C.ar    1  UNL1       -0.0061
     22 C          62.9039   87.8517   17.2337 C.ar    1  UNL1       -0.0029
     23 C          62.6200   86.3959   17.4569 C.ar    1  UNL1       -0.0003
     24 C          63.1740   85.3703   16.5128 C.ar    1  UNL1       -0.0000
     25 C          64.0119   85.8006   15.3455 C.ar    1  UNL1       -0.0003
     26 C          64.2958   87.2564   15.1223 C.ar    1  UNL1       -0.0029
     27 N          63.2169   90.7783   16.5595 N.3     1  UNL1       -0.2935
     28 H          62.3401   90.8739   16.0472 H       1  UNL1        0.1236
     29 C          63.7662   92.1624   16.7400 C.3     1  UNL1        0.0694
     30 C          65.2289   92.3599   17.0075 C.3     1  UNL1        0.0287
     31 C          66.0659   93.1545   16.0494 C.3     1  UNL1        0.1110
     32 C          67.5619   93.1178   16.1518 C.2     1  UNL1        0.3171
     33 O          68.2583   91.8372   16.5053 O.2     1  UNL1       -0.2501
     34 C          69.8586   94.3212   15.9873 C.3     1  UNL1        0.2556
     35 O          68.3617   94.3617   15.9006 O.3     1  UNL1       -0.4444
     36 C          61.7061   90.6945   11.0225 C.3     1  UNL1        0.1391
     37 C          61.3304   89.3271   10.5337 C.ar    1  UNL1        0.0319
     38 C          62.3069   88.5249    9.7256 C.ar    1  UNL1        0.1379
     39 F          63.3161   88.8226    9.4280 F       1  UNL1       -0.2044
     40 C          61.9312   87.1575    9.2367 C.ar    1  UNL1        0.0294
     41 C          60.5789   86.5922    9.5560 C.ar    1  UNL1        0.0022
     42 C          59.6024   87.3943   10.3641 C.ar    1  UNL1        0.0037
     43 C          59.9782   88.7618   10.8529 C.ar    1  UNL1        0.0714
     44 C          59.0017   89.5639   11.6610 C.3     1  UNL1        0.4184
     45 F          58.0252   90.3660   12.4691 F       1  UNL1       -0.1659
     46 F          58.8927   88.4383   12.6465 F       1  UNL1       -0.1659
     47 F          59.1107   90.6894   10.6755 F       1  UNL1       -0.1659
@<TRIPOS>BOND
     1    34    35    1
     2    35    32    1
     3    32    33    2
     4    32    31    1
     5    31    30    1
     6    30    29    1
     7    29    27    1
     8    27    20    1
     9    20    19    1
    10    19     1    1
    11     1     2   ar
    12     2     3    2
    13     2     4   ar
    14     4    10    1
    15    10    11   ar
    16    11    12   ar
    17    12    13   ar
    18    13    14   ar
    19    14    17    1
    20    17    18    1
    21    14    15   ar
    22    15    16    1
    23     4     5   ar
    24     5     6    1
    25     5     7   ar
    26     7    36    1
    27    36    37    1
    28    37    38   ar
    29    38    39    1
    30    38    40   ar
    31    40    41   ar
    32    41    42   ar
    33    42    43   ar
    34    43    44    1
    35    44    45    1
    36    44    46    1
    37    44    47    1
    38     7     8   ar
    39     8     9    2
    40    20    21    1
    41    21    22   ar
    42    22    23   ar
    43    23    24   ar
    44    24    25   ar
    45    25    26   ar
    46     8     1   ar
    47    26    21   ar
    48    15    10   ar
    49    43    37   ar
    50    27    28    1
