@<TRIPOS>MOLECULE
*****
 26 27 0 0 0
SMALL
GASTEIGER

@<TRIPOS>ATOM
      1 C          64.8439   91.8125   13.5319 C.ar    1  UNL1        0.1329
      2 N          64.5937   91.3610   14.9403 N.ar    1  UNL1       -0.1993
      3 C          63.4888   90.3891   15.2312 C.ar    1  UNL1        0.2148
      4 N          63.2386   89.9376   16.6397 N.pl3   1  UNL1       -0.3274
      5 N          62.6341   89.8687   14.1138 N.ar    1  UNL1       -0.2139
      6 C          62.8843   90.3202   12.7054 C.ar    1  UNL1        0.0870
      7 C          62.0296   89.7998   11.5880 C.ar    1  UNL1        0.0193
      8 C          62.2798   90.2513   10.1796 C.ar    1  UNL1        0.0017
      9 C          63.3847   91.2232    9.8887 C.ar    1  UNL1        0.0047
     10 C          64.2394   91.7436   11.0061 C.ar    1  UNL1        0.0575
     11 C          63.9892   91.2921   12.4144 C.ar    1  UNL1        0.0535
     12 H          63.7995   90.2792   17.3731 H       1  UNL1        0.1452
     13 H          62.5134   89.2998   16.8307 H       1  UNL1        0.1452
     14 C          65.3443   92.7155   10.7151 C.2     1  UNL1        0.2459
     15 O          66.7616   92.2336   10.6212 O.2     1  UNL1       -0.2701
     16 N          65.0318   94.1693   10.5181 N.am    1  UNL1       -0.3025
     17 H          64.1015   94.4856   10.5797 H       1  UNL1        0.1497
     18 C          66.1367   95.1412   10.2272 C.3     1  UNL1        0.0720
     19 C          66.4368   96.2473   11.1950 C.3     1  UNL1        0.0213
     20 C          66.9414   95.0070    8.9685 C.3     1  UNL1        0.0213
     21 N          65.9487   92.7844   13.2410 N.pl3   1  UNL1       -0.3180
     22 H          66.0531   93.1542   12.3346 H       1  UNL1        0.1482
     23 C          66.8947   93.1929   14.3311 C.3     1  UNL1        0.0882
     24 C          67.9429   92.2342   14.8128 C.3     1  UNL1        0.0212
     25 C          69.1657   94.0934   16.1539 C.3     1  UNL1        0.0001
     26 C          68.8850   92.6407   15.9070 C.3     1  UNL1        0.0017
@<TRIPOS>BOND
     1    25    26    1
     2    26    24    1
     3    24    23    1
     4    23    21    1
     5    21     1    1
     6     1     2   ar
     7     2     3   ar
     8     3     4    1
     9     3     5   ar
    10     5     6   ar
    11     6     7   ar
    12     7     8   ar
    13     8     9   ar
    14     9    10   ar
    15    10    14    1
    16    14    15    2
    17    14    16   am
    18    16    18    1
    19    18    19    1
    20    18    20    1
    21    10    11   ar
    22    11     1   ar
    23    11     6   ar
    24    21    22    1
    25     4    12    1
    26     4    13    1
    27    16    17    1
@<TRIPOS>MOLECULE
*****
 26 27 0 0 0
SMALL
GASTEIGER

@<TRIPOS>ATOM
      1 C          63.9711   91.0053   14.3496 C.ar    1  UNL1        0.1329
      2 N          64.6700   91.4990   15.5815 N.ar    1  UNL1       -0.1993
      3 C          65.7553   92.5280   15.4666 C.ar    1  UNL1        0.2148
      4 N          66.4542   93.0217   16.6987 N.pl3   1  UNL1       -0.3274
      5 N          66.1418   93.0632   14.1197 N.ar    1  UNL1       -0.2139
      6 C          65.4429   92.5695   12.8877 C.ar    1  UNL1        0.0870
      7 C          65.8293   93.1048   11.5408 C.ar    1  UNL1        0.0193
      8 C          65.1305   92.6111   10.3089 C.ar    1  UNL1        0.0017
      9 C          64.0451   91.5821   10.4238 C.ar    1  UNL1        0.0047
     10 C          63.6586   91.0469   11.7706 C.ar    1  UNL1        0.0575
     11 C          64.3575   91.5406   13.0026 C.ar    1  UNL1        0.0535
     12 H          66.2005   92.6703   17.5827 H       1  UNL1        0.1452
     13 H          67.1666   93.6970   16.6233 H       1  UNL1        0.1452
     14 C          62.5733   90.0179   11.8855 C.2     1  UNL1        0.2459
     15 O          62.9158   88.6041   12.2514 O.2     1  UNL1       -0.2701
     16 N          61.1454   90.4027   11.6346 N.am    1  UNL1       -0.3025
     17 H          60.9206   91.3306   11.3944 H       1  UNL1        0.1497
     18 C          60.0600   89.3737   11.7495 C.3     1  UNL1        0.0720
     19 C          58.9681   89.5453   12.7636 C.3     1  UNL1        0.0213
     20 C          60.0665   88.1731   10.8503 C.3     1  UNL1        0.0213
     21 N          62.8857   89.9763   14.4645 N.pl3   1  UNL1       -0.3180
     22 H          62.4153   89.6648   13.6577 H       1  UNL1        0.1482
     23 C          62.5171   89.4219   15.8086 C.3     1  UNL1        0.0882
     24 C          63.3329   88.3184   16.4142 C.3     1  UNL1        0.0212
     25 C          62.6790   86.0528   17.5049 C.3     1  UNL1        0.0001
     26 C          62.7988   87.5460   17.5839 C.3     1  UNL1        0.0017
@<TRIPOS>BOND
     1    25    26    1
     2    26    24    1
     3    24    23    1
     4    23    21    1
     5    21     1    1
     6     1     2   ar
     7     2     3   ar
     8     3     4    1
     9     3     5   ar
    10     5     6   ar
    11     6     7   ar
    12     7     8   ar
    13     8     9   ar
    14     9    10   ar
    15    10    14    1
    16    14    15    2
    17    14    16   am
    18    16    18    1
    19    18    19    1
    20    18    20    1
    21    10    11   ar
    22    11     1   ar
    23    11     6   ar
    24    21    22    1
    25     4    12    1
    26     4    13    1
    27    16    17    1
@<TRIPOS>MOLECULE
*****
 26 27 0 0 0
SMALL
GASTEIGER

@<TRIPOS>ATOM
      1 C          62.9291   86.6600   12.2844 C.ar    1  UNL1        0.1329
      2 N          63.3760   85.7635   13.4009 N.ar    1  UNL1       -0.1993
      3 C          64.0735   86.3439   14.5953 C.ar    1  UNL1        0.2148
      4 N          64.5204   85.4474   15.7119 N.pl3   1  UNL1       -0.3274
      5 N          64.3242   87.8208   14.6732 N.ar    1  UNL1       -0.2139
      6 C          63.8773   88.7173   13.5566 C.ar    1  UNL1        0.0870
      7 C          64.1280   90.1941   13.6345 C.ar    1  UNL1        0.0193
      8 C          63.6811   91.0905   12.5179 C.ar    1  UNL1        0.0017
      9 C          62.9835   90.5101   11.3236 C.ar    1  UNL1        0.0047
     10 C          62.7329   89.0333   11.2457 C.ar    1  UNL1        0.0575
     11 C          63.1798   88.1369   12.3622 C.ar    1  UNL1        0.0535
     12 H          64.3559   84.4781   15.6608 H       1  UNL1        0.1452
     13 H          64.9782   85.8283   16.4958 H       1  UNL1        0.1452
     14 C          62.0354   88.4529   10.0513 C.2     1  UNL1        0.2459
     15 O          62.7897   87.5791    9.0935 O.2     1  UNL1       -0.2701
     16 N          60.5835   88.7463    9.8147 N.am    1  UNL1       -0.3025
     17 H          60.0884   89.3198   10.4433 H       1  UNL1        0.1497
     18 C          59.8860   88.1659    8.6203 C.3     1  UNL1        0.0720
     19 C          59.5426   89.0429    7.4528 C.3     1  UNL1        0.0213
     20 C          59.5318   86.7086    8.5934 C.3     1  UNL1        0.0213
     21 N          62.2316   86.0796   11.0900 N.pl3   1  UNL1       -0.3180
     22 H          61.6842   86.6575   10.5107 H       1  UNL1        0.1482
     23 C          62.3681   84.6187   10.7783 C.3     1  UNL1        0.0882
     24 C          63.4871   84.1403    9.9014 C.3     1  UNL1        0.0212
     25 C          64.4297   82.5418   11.7197 C.3     1  UNL1        0.0001
     26 C          64.2598   82.9102   10.2757 C.3     1  UNL1        0.0017
@<TRIPOS>BOND
     1    25    26    1
     2    26    24    1
     3    24    23    1
     4    23    21    1
     5    21     1    1
     6     1     2   ar
     7     2     3   ar
     8     3     4    1
     9     3     5   ar
    10     5     6   ar
    11     6     7   ar
    12     7     8   ar
    13     8     9   ar
    14     9    10   ar
    15    10    14    1
    16    14    15    2
    17    14    16   am
    18    16    18    1
    19    18    19    1
    20    18    20    1
    21    10    11   ar
    22    11     1   ar
    23    11     6   ar
    24    21    22    1
    25     4    12    1
    26     4    13    1
    27    16    17    1
@<TRIPOS>MOLECULE
*****
 26 27 0 0 0
SMALL
GASTEIGER

@<TRIPOS>ATOM
      1 C          63.4840   87.3013   13.1230 C.ar    1  UNL1        0.1329
      2 N          63.7481   88.7125   13.5574 N.ar    1  UNL1       -0.1993
      3 C          63.2700   89.8583   12.7157 C.ar    1  UNL1        0.2148
      4 N          63.5341   91.2695   13.1501 N.pl3   1  UNL1       -0.3274
      5 N          62.5277   89.5929   11.4395 N.ar    1  UNL1       -0.2139
      6 C          62.2635   88.1816   11.0051 C.ar    1  UNL1        0.0870
      7 C          61.5213   87.9162    9.7289 C.ar    1  UNL1        0.0193
      8 C          61.2572   86.5051    9.2945 C.ar    1  UNL1        0.0017
      9 C          61.7353   85.3593   10.1363 C.ar    1  UNL1        0.0047
     10 C          62.4775   85.6246   11.4124 C.ar    1  UNL1        0.0575
     11 C          62.7417   87.0358   11.8468 C.ar    1  UNL1        0.0535
     12 H          64.0213   91.4437   13.9877 H       1  UNL1        0.1452
     13 H          63.2203   92.0216   12.5977 H       1  UNL1        0.1452
     14 C          62.9557   84.4788   12.2542 C.2     1  UNL1        0.2459
     15 O          64.3311   83.9179   12.0459 O.2     1  UNL1       -0.2701
     16 N          62.0583   83.8940   13.3043 N.am    1  UNL1       -0.3025
     17 H          61.1556   84.2622   13.4410 H       1  UNL1        0.1497
     18 C          62.5365   82.7482   14.1460 C.3     1  UNL1        0.0720
     19 C          63.7886   82.8870   14.9602 C.3     1  UNL1        0.0213
     20 C          61.7625   81.4636   14.1736 C.3     1  UNL1        0.0213
     21 N          63.9621   86.1555   13.9648 N.pl3   1  UNL1       -0.3180
     22 H          63.9785   85.2443   13.5923 H       1  UNL1        0.1482
     23 C          64.4152   86.3980   15.3740 C.3     1  UNL1        0.0882
     24 C          63.5323   86.0101   16.5229 C.3     1  UNL1        0.0212
     25 C          63.0669   88.5179   17.0170 C.3     1  UNL1        0.0001
     26 C          62.8165   87.0681   17.3093 C.3     1  UNL1        0.0017
@<TRIPOS>BOND
     1    25    26    1
     2    26    24    1
     3    24    23    1
     4    23    21    1
     5    21     1    1
     6     1     2   ar
     7     2     3   ar
     8     3     4    1
     9     3     5   ar
    10     5     6   ar
    11     6     7   ar
    12     7     8   ar
    13     8     9   ar
    14     9    10   ar
    15    10    14    1
    16    14    15    2
    17    14    16   am
    18    16    18    1
    19    18    19    1
    20    18    20    1
    21    10    11   ar
    22    11     1   ar
    23    11     6   ar
    24    21    22    1
    25     4    12    1
    26     4    13    1
    27    16    17    1
@<TRIPOS>MOLECULE
*****
 26 27 0 0 0
SMALL
GASTEIGER

@<TRIPOS>ATOM
      1 C          63.1407   86.1654   12.4863 C.ar    1  UNL1        0.1329
      2 N          63.5729   86.3468   13.9112 N.ar    1  UNL1       -0.1993
      3 C          64.2807   85.2351   14.6276 C.ar    1  UNL1        0.2148
      4 N          64.7129   85.4167   16.0525 N.pl3   1  UNL1       -0.3274
      5 N          64.5561   83.9420   13.9192 N.ar    1  UNL1       -0.2139
      6 C          64.1238   83.7605   12.4943 C.ar    1  UNL1        0.0870
      7 C          64.3993   82.4673   11.7859 C.ar    1  UNL1        0.0193
      8 C          63.9670   82.2859   10.3611 C.ar    1  UNL1        0.0017
      9 C          63.2593   83.3976    9.6447 C.ar    1  UNL1        0.0047
     10 C          62.9838   84.6907   10.3530 C.ar    1  UNL1        0.0575
     11 C          63.4161   84.8722   11.7779 C.ar    1  UNL1        0.0535
     12 H          64.5321   86.2654   16.5174 H       1  UNL1        0.1452
     13 H          65.1774   84.6870   16.5227 H       1  UNL1        0.1452
     14 C          62.2761   85.8024    9.6366 C.2     1  UNL1        0.2459
     15 O          63.0668   86.8475    8.9069 O.2     1  UNL1       -0.2701
     16 N          60.7777   85.8690    9.6499 N.am    1  UNL1       -0.3025
     17 H          60.2587   85.1831   10.1288 H       1  UNL1        0.1497
     18 C          60.0700   86.9807    8.9334 C.3     1  UNL1        0.0720
     19 C          59.4308   86.7266    7.6004 C.3     1  UNL1        0.0213
     20 C          60.0014   88.3463    9.5500 C.3     1  UNL1        0.0213
     21 N          62.4329   87.2770   11.7699 N.pl3   1  UNL1       -0.3180
     22 H          61.6981   87.0723   11.1476 H       1  UNL1        0.1482
     23 C          62.8449   88.7006   12.0016 C.3     1  UNL1        0.0882
     24 C          62.7027   89.7110   10.9021 C.3     1  UNL1        0.0212
     25 C          64.1482   91.4041   12.2415 C.3     1  UNL1        0.0001
     26 C          63.4569   91.0058   10.9713 C.3     1  UNL1        0.0017
@<TRIPOS>BOND
     1    25    26    1
     2    26    24    1
     3    24    23    1
     4    23    21    1
     5    21     1    1
     6     1     2   ar
     7     2     3   ar
     8     3     4    1
     9     3     5   ar
    10     5     6   ar
    11     6     7   ar
    12     7     8   ar
    13     8     9   ar
    14     9    10   ar
    15    10    14    1
    16    14    15    2
    17    14    16   am
    18    16    18    1
    19    18    19    1
    20    18    20    1
    21    10    11   ar
    22    11     1   ar
    23    11     6   ar
    24    21    22    1
    25     4    12    1
    26     4    13    1
    27    16    17    1
@<TRIPOS>MOLECULE
*****
 26 27 0 0 0
SMALL
GASTEIGER

@<TRIPOS>ATOM
      1 C          62.5589   87.2386   11.2505 C.ar    1  UNL1        0.1329
      2 N          62.1633   88.3538   10.3288 N.ar    1  UNL1       -0.1993
      3 C          62.4689   89.7754   10.6971 C.ar    1  UNL1        0.2148
      4 N          62.0732   90.8907    9.7753 N.pl3   1  UNL1       -0.3274
      5 N          63.1701   90.0818   11.9872 N.ar    1  UNL1       -0.2139
      6 C          63.5657   88.9665   12.9091 C.ar    1  UNL1        0.0870
      7 C          64.2669   89.2729   14.1992 C.ar    1  UNL1        0.0193
      8 C          64.6625   88.1576   15.1209 C.ar    1  UNL1        0.0017
      9 C          64.3569   86.7360   14.7526 C.ar    1  UNL1        0.0047
     10 C          63.6557   86.4297   13.4625 C.ar    1  UNL1        0.0575
     11 C          63.2601   87.5449   12.5407 C.ar    1  UNL1        0.0535
     12 H          61.6130   90.6896    8.9285 H       1  UNL1        0.1452
     13 H          62.2738   91.8238   10.0170 H       1  UNL1        0.1452
     14 C          63.3501   85.0081   13.0941 C.2     1  UNL1        0.2459
     15 O          61.9727   84.4561   13.3129 O.2     1  UNL1       -0.2701
     16 N          64.4220   84.1385   12.5069 N.am    1  UNL1       -0.3025
     17 H          65.3261   84.5007   12.3633 H       1  UNL1        0.1497
     18 C          64.1164   82.7169   12.1386 C.3     1  UNL1        0.0720
     19 C          63.9616   82.3323   10.6969 C.3     1  UNL1        0.0213
     20 C          63.9656   81.6798   13.2117 C.3     1  UNL1        0.0213
     21 N          62.2533   85.8170   10.8822 N.pl3   1  UNL1       -0.3180
     22 H          62.2474   85.1190   11.5764 H       1  UNL1        0.1482
     23 C          61.9567   85.4589    9.4561 C.3     1  UNL1        0.0882
     24 C          63.0814   85.1857    8.5019 C.3     1  UNL1        0.0212
     25 C          61.3682   84.7008    6.6099 C.3     1  UNL1        0.0001
     26 C          62.7868   84.8789    7.0634 C.3     1  UNL1        0.0017
@<TRIPOS>BOND
     1    25    26    1
     2    26    24    1
     3    24    23    1
     4    23    21    1
     5    21     1    1
     6     1     2   ar
     7     2     3   ar
     8     3     4    1
     9     3     5   ar
    10     5     6   ar
    11     6     7   ar
    12     7     8   ar
    13     8     9   ar
    14     9    10   ar
    15    10    14    1
    16    14    15    2
    17    14    16   am
    18    16    18    1
    19    18    19    1
    20    18    20    1
    21    10    11   ar
    22    11     1   ar
    23    11     6   ar
    24    21    22    1
    25     4    12    1
    26     4    13    1
    27    16    17    1
@<TRIPOS>MOLECULE
*****
 26 27 0 0 0
SMALL
GASTEIGER

@<TRIPOS>ATOM
      1 C          62.9712   88.0953   11.8397 C.ar    1  UNL1        0.1329
      2 N          63.4528   89.1306   12.8123 N.ar    1  UNL1       -0.1993
      3 C          63.9873   88.7120   14.1499 C.ar    1  UNL1        0.2148
      4 N          64.4690   89.7475   15.1226 N.pl3   1  UNL1       -0.3274
      5 N          64.0403   87.2581   14.5148 N.ar    1  UNL1       -0.2139
      6 C          63.5587   86.2226   13.5422 C.ar    1  UNL1        0.0870
      7 C          63.6116   84.7687   13.9071 C.ar    1  UNL1        0.0193
      8 C          63.1300   83.7333   12.9345 C.ar    1  UNL1        0.0017
      9 C          62.5954   84.1519   11.5969 C.ar    1  UNL1        0.0047
     10 C          62.5425   85.6059   11.2320 C.ar    1  UNL1        0.0575
     11 C          63.0241   86.6412   12.2046 C.ar    1  UNL1        0.0535
     12 H          64.4342   90.7017   14.8830 H       1  UNL1        0.1452
     13 H          64.8198   89.4727   16.0004 H       1  UNL1        0.1452
     14 C          62.0080   86.0245    9.8944 C.2     1  UNL1        0.2459
     15 O          62.9222   86.0845    8.7068 O.2     1  UNL1       -0.2701
     16 N          60.5592   86.3830    9.7445 N.am    1  UNL1       -0.3025
     17 H          59.9592   86.3437   10.5240 H       1  UNL1        0.1497
     18 C          60.0247   86.8016    8.4070 C.3     1  UNL1        0.0720
     19 C          59.6156   88.2261    8.1752 C.3     1  UNL1        0.0213
     20 C          59.8992   85.7959    7.3013 C.3     1  UNL1        0.0213
     21 N          62.4366   88.5138   10.5022 N.pl3   1  UNL1       -0.3180
     22 H          62.1986   87.8329    9.8322 H       1  UNL1        0.1482
     23 C          62.2649   89.9699   10.1854 C.3     1  UNL1        0.0882
     24 C          61.2773   90.7939   10.9572 C.3     1  UNL1        0.0212
     25 C          59.4031   89.4864   12.1933 C.3     1  UNL1        0.0001
     26 C          59.8463   90.3544   11.0530 C.3     1  UNL1        0.0017
@<TRIPOS>BOND
     1    25    26    1
     2    26    24    1
     3    24    23    1
     4    23    21    1
     5    21     1    1
     6     1     2   ar
     7     2     3   ar
     8     3     4    1
     9     3     5   ar
    10     5     6   ar
    11     6     7   ar
    12     7     8   ar
    13     8     9   ar
    14     9    10   ar
    15    10    14    1
    16    14    15    2
    17    14    16   am
    18    16    18    1
    19    18    19    1
    20    18    20    1
    21    10    11   ar
    22    11     1   ar
    23    11     6   ar
    24    21    22    1
    25     4    12    1
    26     4    13    1
    27    16    17    1
@<TRIPOS>MOLECULE
*****
 26 27 0 0 0
SMALL
GASTEIGER

@<TRIPOS>ATOM
      1 C          63.7853   87.8756   13.3805 C.ar    1  UNL1        0.1329
      2 N          64.4268   88.9620   14.1918 N.ar    1  UNL1       -0.1993
      3 C          64.2977   90.3937   13.7634 C.ar    1  UNL1        0.2148
      4 N          64.9392   91.4801   14.5748 N.pl3   1  UNL1       -0.3274
      5 N          63.5271   90.7391   12.5237 N.ar    1  UNL1       -0.2139
      6 C          62.8856   89.6527   11.7123 C.ar    1  UNL1        0.0870
      7 C          62.1151   89.9980   10.4726 C.ar    1  UNL1        0.0193
      8 C          61.4736   88.9117    9.6613 C.ar    1  UNL1        0.0017
      9 C          61.6027   87.4800   10.0897 C.ar    1  UNL1        0.0047
     10 C          62.3733   87.1346   11.3294 C.ar    1  UNL1        0.0575
     11 C          63.0147   88.2210   12.1407 C.ar    1  UNL1        0.0535
     12 H          65.4450   91.2534   15.3885 H       1  UNL1        0.1452
     13 H          64.8545   92.4198   14.2937 H       1  UNL1        0.1452
     14 C          62.5024   85.7029   11.7578 C.2     1  UNL1        0.2459
     15 O          61.7463   85.2070   12.9546 O.2     1  UNL1       -0.2701
     16 N          63.3876   84.7670   10.9893 N.am    1  UNL1       -0.3025
     17 H          63.8838   85.0925   10.2038 H       1  UNL1        0.1497
     18 C          63.5167   83.3353   11.4177 C.3     1  UNL1        0.0720
     19 C          63.3123   82.9614   12.8560 C.3     1  UNL1        0.0213
     20 C          63.8502   82.2775   10.4079 C.3     1  UNL1        0.0213
     21 N          63.9144   86.4439   13.8089 N.pl3   1  UNL1       -0.3180
     22 H          63.7171   85.7198   13.1717 H       1  UNL1        0.1482
     23 C          64.3442   86.1155   15.2079 C.3     1  UNL1        0.0882
     24 C          63.3561   85.5447   16.1815 C.3     1  UNL1        0.0212
     25 C          62.9106   87.8524   17.2888 C.3     1  UNL1        0.0001
     26 C          62.9160   86.3543   17.3651 C.3     1  UNL1        0.0017
@<TRIPOS>BOND
     1    25    26    1
     2    26    24    1
     3    24    23    1
     4    23    21    1
     5    21     1    1
     6     1     2   ar
     7     2     3   ar
     8     3     4    1
     9     3     5   ar
    10     5     6   ar
    11     6     7   ar
    12     7     8   ar
    13     8     9   ar
    14     9    10   ar
    15    10    14    1
    16    14    15    2
    17    14    16   am
    18    16    18    1
    19    18    19    1
    20    18    20    1
    21    10    11   ar
    22    11     1   ar
    23    11     6   ar
    24    21    22    1
    25     4    12    1
    26     4    13    1
    27    16    17    1
@<TRIPOS>MOLECULE
*****
 26 27 0 0 0
SMALL
GASTEIGER

@<TRIPOS>ATOM
      1 C          62.9697   88.2108   12.0029 C.ar    1  UNL1        0.1329
      2 N          63.4909   89.1640   13.0371 N.ar    1  UNL1       -0.1993
      3 C          64.0519   88.6396   14.3256 C.ar    1  UNL1        0.2148
      4 N          64.5731   89.5929   15.3598 N.pl3   1  UNL1       -0.3274
      5 N          64.0916   87.1618   14.5799 N.ar    1  UNL1       -0.2139
      6 C          63.5704   86.2085   13.5456 C.ar    1  UNL1        0.0870
      7 C          63.6102   84.7308   13.7999 C.ar    1  UNL1        0.0193
      8 C          63.0890   83.7776   12.7657 C.ar    1  UNL1        0.0017
      9 C          62.5280   84.3020   11.4772 C.ar    1  UNL1        0.0047
     10 C          62.4882   85.7798   11.2229 C.ar    1  UNL1        0.0575
     11 C          63.0094   86.7330   12.2571 C.ar    1  UNL1        0.0535
     12 H          64.5470   90.5628   15.1929 H       1  UNL1        0.1452
     13 H          64.9413   89.2487   16.2055 H       1  UNL1        0.1452
     14 C          61.9273   86.3042    9.9344 C.2     1  UNL1        0.2459
     15 O          62.8189   86.4665    8.7392 O.2     1  UNL1       -0.2701
     16 N          60.4747   86.6665    9.8412 N.am    1  UNL1       -0.3025
     17 H          59.8895   86.5600   10.6256 H       1  UNL1        0.1497
     18 C          59.9137   87.1909    8.5526 C.3     1  UNL1        0.0720
     19 C          59.7786   88.6697    8.3403 C.3     1  UNL1        0.0213
     20 C          59.4879   86.2367    7.4765 C.3     1  UNL1        0.0213
     21 N          62.4087   88.7353   10.7144 N.pl3   1  UNL1       -0.3180
     22 H          62.2337   88.1191    9.9667 H       1  UNL1        0.1482
     23 C          62.1145   90.1985   10.5650 C.3     1  UNL1        0.0882
     24 C          63.1868   91.1347   10.0920 C.3     1  UNL1        0.0212
     25 C          65.1879   92.7076   10.6135 C.3     1  UNL1        0.0001
     26 C          64.1666   91.7091   11.0719 C.3     1  UNL1        0.0017
@<TRIPOS>BOND
     1    25    26    1
     2    26    24    1
     3    24    23    1
     4    23    21    1
     5    21     1    1
     6     1     2   ar
     7     2     3   ar
     8     3     4    1
     9     3     5   ar
    10     5     6   ar
    11     6     7   ar
    12     7     8   ar
    13     8     9   ar
    14     9    10   ar
    15    10    14    1
    16    14    15    2
    17    14    16   am
    18    16    18    1
    19    18    19    1
    20    18    20    1
    21    10    11   ar
    22    11     1   ar
    23    11     6   ar
    24    21    22    1
    25     4    12    1
    26     4    13    1
    27    16    17    1
