@<TRIPOS>MOLECULE
*****
 47 52 0 0 0
SMALL
GASTEIGER

@<TRIPOS>ATOM
      1 C          63.8625   83.9472   13.0308 C.ar    1  UNL1        0.1721
      2 C          63.3349   85.3253   13.2999 C.ar    1  UNL1        0.0360
      3 C          62.6776   86.1048   12.1998 C.ar    1  UNL1       -0.0119
      4 C          62.5478   85.5062   10.8306 C.ar    1  UNL1        0.0000
      5 C          63.0753   84.1281   10.5615 C.ar    1  UNL1        0.0374
      6 C          63.7327   83.3486   11.6616 C.ar    1  UNL1        0.1718
      7 C          61.8904   86.2858    9.7305 C.3     1  UNL1        0.1259
      8 N          61.3629   87.6639    9.9996 N.am    1  UNL1       -0.2374
      9 C          61.4927   88.2625   11.3689 C.2     1  UNL1        0.2353
     10 O          60.9651   89.6406   11.6380 O.2     1  UNL1       -0.2741
     11 C          62.1500   87.4830   12.4690 C.3     1  UNL1        0.1118
     12 C          61.7606   85.6872    8.3613 C.ar    1  UNL1        0.0003
     13 C          62.9869   85.2621    7.6092 C.ar    1  UNL1       -0.0015
     14 C          62.8571   84.6635    6.2400 C.ar    1  UNL1        0.0111
     15 C          61.5010   84.4900    5.6228 C.ar    1  UNL1        0.0577
     16 CL         61.3713   83.8914    4.2535 Cl      1  UNL1       -0.0822
     17 C          60.2748   84.9150    6.3748 C.ar    1  UNL1        0.0111
     18 C          60.4045   85.5136    7.7441 C.ar    1  UNL1       -0.0015
     19 C          60.7055   88.4434    8.8995 C.ar    1  UNL1        0.1380
     20 C          59.4089   87.9676    8.3145 C.ar    1  UNL1        0.0360
     21 C          58.7516   88.7471    7.2144 C.ar    1  UNL1        0.0190
     22 C          59.3908   90.0025    6.6993 C.ar    1  UNL1        0.0674
     23 C          60.6875   90.4784    7.2844 C.ar    1  UNL1        0.1147
     24 N          61.3449   89.6988    8.3845 N.ar    1  UNL1       -0.2275
     25 N          58.7335   90.7820    5.5992 N.pl3   1  UNL1       -0.3046
     26 C          57.6048   90.1742    4.8204 C.3     1  UNL1        0.1122
     27 C          59.2049   92.1694    5.2780 C.3     1  UNL1        0.0908
     28 C          59.9390   92.4342    3.9970 C.3     1  UNL1        0.0199
     29 C          61.3879   92.0664    3.8731 C.3     1  UNL1        0.0031
     30 C          62.1220   92.3312    2.5921 C.3     1  UNL1        0.0160
     31 C          61.4072   92.9640    1.4350 C.3     1  UNL1        0.0580
     32 C          59.9583   93.3318    1.5590 C.3     1  UNL1        0.0160
     33 C          59.2242   93.0669    2.8400 C.3     1  UNL1        0.0031
     34 N          62.1413   93.2289    0.1540 N.3     1  UNL1       -0.2649
     35 C          63.6206   93.4767    0.1748 C.3     1  UNL1        0.0942
     36 C          64.3547   93.7416   -1.1062 C.3     1  UNL1        0.1108
     37 N          63.6095   93.7586   -2.4079 N.am    1  UNL1       -0.2752
     38 C          64.3436   94.0235   -3.6889 C.3     1  UNL1        0.1149
     39 C          62.1302   93.5108   -2.4286 C.2     1  UNL1        0.2421
     40 O          61.3850   93.5279   -3.7304 O.2     1  UNL1       -0.2734
     41 C          61.3961   93.2459   -1.1477 C.3     1  UNL1        0.1586
     42 C          64.1181   83.3989   15.5575 C.3     1  UNL1        0.2526
     43 O          64.5198   83.1676   14.1309 O.3     1  UNL1       -0.4684
     44 O          64.2602   81.9704   11.3924 O.3     1  UNL1       -0.4761
     45 C          63.3287   80.7948   11.4063 C.3     1  UNL1        0.1663
     46 C          63.0409   80.0508   10.1360 C.3     1  UNL1        0.0472
     47 C          62.6850   80.3631   12.6906 C.3     1  UNL1        0.0472
@<TRIPOS>BOND
     1    42    43    1
     2    43     1    1
     3     1     2   ar
     4     2     3   ar
     5     3     4   ar
     6     4     5   ar
     7     5     6   ar
     8     6    44    1
     9    44    45    1
    10    45    46    1
    11    45    47    1
    12     4     7    1
    13     7    12    1
    14    12    13   ar
    15    13    14   ar
    16    14    15   ar
    17    15    16    1
    18    15    17   ar
    19    17    18   ar
    20     7     8    1
    21     8    19    1
    22    19    20   ar
    23    20    21   ar
    24    21    22   ar
    25    22    25    1
    26    25    26    1
    27    25    27    1
    28    28    27    1
    29    28    29    1
    30    29    30    1
    31    30    31    1
    32    31    34    1
    33    34    35    1
    34    35    36    1
    35    36    37    1
    36    37    38    1
    37    37    39   am
    38    39    40    2
    39    39    41    1
    40    31    32    1
    41    32    33    1
    42    22    23   ar
    43    23    24   ar
    44     8     9   am
    45     9    10    2
    46     9    11    1
    47     6     1   ar
    48    18    12   ar
    49    24    19   ar
    50    11     3    1
    51    33    28    1
    52    41    34    1
@<TRIPOS>MOLECULE
*****
 47 52 0 0 0
SMALL
GASTEIGER

@<TRIPOS>ATOM
      1 C          60.3995   91.2443    5.4599 C.ar    1  UNL1        0.1721
      2 C          61.7601   91.1170    4.8414 C.ar    1  UNL1        0.0360
      3 C          62.0758   91.8434    3.5676 C.ar    1  UNL1       -0.0119
      4 C          61.0310   92.6970    2.9122 C.ar    1  UNL1        0.0000
      5 C          59.6704   92.8242    3.5307 C.ar    1  UNL1        0.0374
      6 C          59.3547   92.0979    4.8045 C.ar    1  UNL1        0.1718
      7 C          61.3467   93.4233    1.6383 C.3     1  UNL1        0.1259
      8 N          62.7073   93.2961    1.0198 N.am    1  UNL1       -0.2374
      9 C          63.7522   92.4424    1.6752 C.2     1  UNL1        0.2353
     10 O          65.1128   92.3152    1.0567 O.2     1  UNL1       -0.2741
     11 C          63.4365   91.7161    2.9491 C.3     1  UNL1        0.1118
     12 C          60.3019   94.2770    0.9829 C.ar    1  UNL1        0.0003
     13 C          59.3178   93.6610    0.0330 C.ar    1  UNL1       -0.0015
     14 C          58.2729   94.5147   -0.6224 C.ar    1  UNL1        0.0111
     15 C          58.2121   95.9842   -0.3279 C.ar    1  UNL1        0.0577
     16 CL         57.1671   96.8378   -0.9833 Cl      1  UNL1       -0.0822
     17 C          59.1961   96.6001    0.6220 C.ar    1  UNL1        0.0111
     18 C          60.2410   95.7465    1.2774 C.ar    1  UNL1       -0.0015
     19 C          63.0230   94.0224   -0.2540 C.ar    1  UNL1        0.1380
     20 C          63.2113   93.2543   -1.5285 C.ar    1  UNL1        0.0360
     21 C          63.5270   93.9806   -2.8024 C.ar    1  UNL1        0.0190
     22 C          63.6545   95.4752   -2.8017 C.ar    1  UNL1        0.0674
     23 C          63.4662   96.2434   -1.5272 C.ar    1  UNL1        0.1147
     24 N          63.1505   95.5171   -0.2533 N.ar    1  UNL1       -0.2275
     25 N          63.9702   96.2015   -4.0756 N.pl3   1  UNL1       -0.3046
     26 C          65.3962   96.4892   -4.4412 C.3     1  UNL1        0.1122
     27 C          62.8599   96.6401   -4.9838 C.3     1  UNL1        0.0908
     28 C          61.6802   95.7427   -5.2137 C.3     1  UNL1        0.0199
     29 C          61.3197   95.3198   -6.6071 C.3     1  UNL1        0.0031
     30 C          60.1400   94.4224   -6.8369 C.3     1  UNL1        0.0160
     31 C          59.3207   93.9477   -5.6735 C.3     1  UNL1        0.0580
     32 C          59.6812   94.3706   -4.2802 C.3     1  UNL1        0.0160
     33 C          60.8609   95.2680   -4.0503 C.3     1  UNL1        0.0031
     34 N          58.1410   93.0503   -5.9033 N.3     1  UNL1       -0.2649
     35 C          57.5458   92.9305   -7.2750 C.3     1  UNL1        0.0942
     36 C          56.3661   92.0330   -7.5049 C.3     1  UNL1        0.1108
     37 N          55.7816   91.2553   -6.3631 N.am    1  UNL1       -0.2752
     38 C          54.6019   90.3578   -6.5930 C.3     1  UNL1        0.1149
     39 C          56.3768   91.3751   -4.9915 C.2     1  UNL1        0.2421
     40 O          55.7923   90.5975   -3.8497 O.2     1  UNL1       -0.2734
     41 C          57.5565   92.2726   -4.7616 C.3     1  UNL1        0.1586
     42 C          59.3420   89.2149    6.6901 C.3     1  UNL1        0.2526
     43 O          60.0838   90.5179    6.7338 O.3     1  UNL1       -0.4684
     44 O          57.9940   92.2252    5.4230 O.3     1  UNL1       -0.4761
     45 C          56.8866   91.3087    4.9944 C.3     1  UNL1        0.1663
     46 C          55.6282   91.8763    4.4073 C.3     1  UNL1        0.0472
     47 C          57.0375   89.8248    5.1527 C.3     1  UNL1        0.0472
@<TRIPOS>BOND
     1    42    43    1
     2    43     1    1
     3     1     2   ar
     4     2     3   ar
     5     3     4   ar
     6     4     5   ar
     7     5     6   ar
     8     6    44    1
     9    44    45    1
    10    45    46    1
    11    45    47    1
    12     4     7    1
    13     7    12    1
    14    12    13   ar
    15    13    14   ar
    16    14    15   ar
    17    15    16    1
    18    15    17   ar
    19    17    18   ar
    20     7     8    1
    21     8    19    1
    22    19    20   ar
    23    20    21   ar
    24    21    22   ar
    25    22    25    1
    26    25    26    1
    27    25    27    1
    28    28    27    1
    29    28    29    1
    30    29    30    1
    31    30    31    1
    32    31    34    1
    33    34    35    1
    34    35    36    1
    35    36    37    1
    36    37    38    1
    37    37    39   am
    38    39    40    2
    39    39    41    1
    40    31    32    1
    41    32    33    1
    42    22    23   ar
    43    23    24   ar
    44     8     9   am
    45     9    10    2
    46     9    11    1
    47     6     1   ar
    48    18    12   ar
    49    24    19   ar
    50    11     3    1
    51    33    28    1
    52    41    34    1
@<TRIPOS>MOLECULE
*****
 47 52 0 0 0
SMALL
GASTEIGER

@<TRIPOS>ATOM
      1 C          63.9041   83.1542   12.4661 C.ar    1  UNL1        0.1721
      2 C          63.8039   83.0926   10.9708 C.ar    1  UNL1        0.0360
      3 C          63.0569   84.1580   10.2246 C.ar    1  UNL1       -0.0119
      4 C          62.4101   85.2851   10.9737 C.ar    1  UNL1        0.0000
      5 C          62.5104   85.3468   12.4691 C.ar    1  UNL1        0.0374
      6 C          63.2574   84.2814   13.2153 C.ar    1  UNL1        0.1718
      7 C          61.6631   86.3506   10.2275 C.3     1  UNL1        0.1259
      8 N          61.5628   86.2889    8.7322 N.am    1  UNL1       -0.2374
      9 C          62.2096   85.1617    7.9829 C.2     1  UNL1        0.2353
     10 O          62.1093   85.1000    6.4876 O.2     1  UNL1       -0.2741
     11 C          62.9566   84.0963    8.7291 C.3     1  UNL1        0.1118
     12 C          61.0164   87.4777   10.9767 C.ar    1  UNL1        0.0003
     13 C          59.5312   87.4838   11.1871 C.ar    1  UNL1       -0.0015
     14 C          58.8844   88.6109   11.9362 C.ar    1  UNL1        0.0111
     15 C          59.7228   89.7320   12.4750 C.ar    1  UNL1        0.0577
     16 CL         59.0760   90.8592   13.2242 Cl      1  UNL1       -0.0822
     17 C          61.2079   89.7259   12.2646 C.ar    1  UNL1        0.0111
     18 C          61.8548   88.5988   11.5154 C.ar    1  UNL1       -0.0015
     19 C          60.8158   87.3543    7.9860 C.ar    1  UNL1        0.1380
     20 C          59.6753   86.9805    7.0863 C.ar    1  UNL1        0.0360
     21 C          58.9283   88.0459    6.3402 C.ar    1  UNL1        0.0190
     22 C          59.3218   89.4852    6.4936 C.ar    1  UNL1        0.0674
     23 C          60.4624   89.8591    7.3933 C.ar    1  UNL1        0.1147
     24 N          61.2094   88.7937    8.1395 N.ar    1  UNL1       -0.2275
     25 N          58.5748   90.5506    5.7474 N.pl3   1  UNL1       -0.3046
     26 C          57.2039   90.2678    5.2083 C.3     1  UNL1        0.1122
     27 C          59.1987   91.8989    5.5403 C.3     1  UNL1        0.0908
     28 C          59.9079   92.2077    4.2551 C.3     1  UNL1        0.0199
     29 C          59.1738   92.8891    3.1384 C.3     1  UNL1        0.0031
     30 C          59.8830   93.1979    1.8532 C.3     1  UNL1        0.0160
     31 C          61.3262   92.8252    1.6846 C.3     1  UNL1        0.0580
     32 C          62.0602   92.1439    2.8013 C.3     1  UNL1        0.0160
     33 C          61.3510   91.8351    4.0865 C.3     1  UNL1        0.0031
     34 N          62.0354   93.1340    0.3994 N.3     1  UNL1       -0.2649
     35 C          63.5108   93.4045    0.4032 C.3     1  UNL1        0.0942
     36 C          64.2200   93.7133   -0.8820 C.3     1  UNL1        0.1108
     37 N          63.4537   93.7515   -2.1710 N.am    1  UNL1       -0.2752
     38 C          64.1628   94.0603   -3.4562 C.3     1  UNL1        0.1149
     39 C          61.9783   93.4810   -2.1747 C.2     1  UNL1        0.2421
     40 O          61.2120   93.5192   -3.4637 O.2     1  UNL1       -0.2734
     41 C          61.2692   93.1722   -0.8895 C.3     1  UNL1        0.1586
     42 C          63.9157   80.9036   13.7639 C.3     1  UNL1        0.2526
     43 O          64.6512   82.0888   13.2123 O.3     1  UNL1       -0.4684
     44 O          63.3577   84.3431   14.7107 O.3     1  UNL1       -0.4761
     45 C          63.8813   85.5809   15.3768 C.3     1  UNL1        0.1663
     46 C          63.2044   86.1156   16.6040 C.3     1  UNL1        0.0472
     47 C          65.0817   86.2839   14.8157 C.3     1  UNL1        0.0472
@<TRIPOS>BOND
     1    42    43    1
     2    43     1    1
     3     1     2   ar
     4     2     3   ar
     5     3     4   ar
     6     4     5   ar
     7     5     6   ar
     8     6    44    1
     9    44    45    1
    10    45    46    1
    11    45    47    1
    12     4     7    1
    13     7    12    1
    14    12    13   ar
    15    13    14   ar
    16    14    15   ar
    17    15    16    1
    18    15    17   ar
    19    17    18   ar
    20     7     8    1
    21     8    19    1
    22    19    20   ar
    23    20    21   ar
    24    21    22   ar
    25    22    25    1
    26    25    26    1
    27    25    27    1
    28    28    27    1
    29    28    29    1
    30    29    30    1
    31    30    31    1
    32    31    34    1
    33    34    35    1
    34    35    36    1
    35    36    37    1
    36    37    38    1
    37    37    39   am
    38    39    40    2
    39    39    41    1
    40    31    32    1
    41    32    33    1
    42    22    23   ar
    43    23    24   ar
    44     8     9   am
    45     9    10    2
    46     9    11    1
    47     6     1   ar
    48    18    12   ar
    49    24    19   ar
    50    11     3    1
    51    33    28    1
    52    41    34    1
@<TRIPOS>MOLECULE
*****
 47 52 0 0 0
SMALL
GASTEIGER

@<TRIPOS>ATOM
      1 C          66.4492   95.6519   10.7496 C.ar    1  UNL1        0.1721
      2 C          66.8885   95.2985   12.1396 C.ar    1  UNL1        0.0360
      3 C          66.3132   94.0945   12.8246 C.ar    1  UNL1       -0.0119
      4 C          65.2987   93.2438   12.1197 C.ar    1  UNL1        0.0000
      5 C          64.8595   93.5971   10.7297 C.ar    1  UNL1        0.0374
      6 C          65.4347   94.8012   10.0447 C.ar    1  UNL1        0.1718
      7 C          64.7235   92.0397   12.8047 C.3     1  UNL1        0.1259
      8 N          65.1628   91.6863   14.1947 N.am    1  UNL1       -0.2374
      9 C          66.1773   92.5370   14.8997 C.2     1  UNL1        0.2353
     10 O          66.6166   92.1837   16.2897 O.2     1  UNL1       -0.2741
     11 C          66.7526   93.7411   14.2147 C.3     1  UNL1        0.1118
     12 C          63.7090   91.1890   12.0998 C.ar    1  UNL1        0.0003
     13 C          63.8989   90.8383   10.6537 C.ar    1  UNL1       -0.0015
     14 C          62.8844   89.9876    9.9487 C.ar    1  UNL1        0.0111
     15 C          61.6799   89.4875   10.6898 C.ar    1  UNL1        0.0577
     16 CL         60.6654   88.6367    9.9848 Cl      1  UNL1       -0.0822
     17 C          61.4900   89.8381   12.1358 C.ar    1  UNL1        0.0111
     18 C          62.5045   90.6888   12.8408 C.ar    1  UNL1       -0.0015
     19 C          64.5875   90.4822   14.8798 C.ar    1  UNL1        0.1380
     20 C          64.8928   89.1078   14.3625 C.ar    1  UNL1        0.0360
     21 C          64.3176   87.9037   15.0476 C.ar    1  UNL1        0.0190
     22 C          63.4370   88.0741   16.2498 C.ar    1  UNL1        0.0674
     23 C          63.1316   89.4486   16.7671 C.ar    1  UNL1        0.1147
     24 N          63.7069   90.6527   16.0821 N.ar    1  UNL1       -0.2275
     25 N          62.8618   86.8700   16.9349 N.pl3   1  UNL1       -0.3046
     26 C          61.5089   86.9479   17.5781 C.3     1  UNL1        0.1122
     27 C          63.6394   85.5879   16.9767 C.3     1  UNL1        0.0908
     28 C          63.5389   84.6124   15.8417 C.3     1  UNL1        0.0199
     29 C          64.6442   84.5204   14.8318 C.3     1  UNL1        0.0031
     30 C          64.5437   83.5449   13.6967 C.3     1  UNL1        0.0160
     31 C          63.3379   82.6614   13.5717 C.3     1  UNL1        0.0580
     32 C          62.2327   82.7535   14.5816 C.3     1  UNL1        0.0160
     33 C          62.3332   83.7290   15.7166 C.3     1  UNL1        0.0031
     34 N          63.2374   81.6859   12.4366 N.3     1  UNL1       -0.2649
     35 C          63.5265   82.1342   11.0346 C.3     1  UNL1        0.0942
     36 C          63.4260   81.1586    9.8996 C.3     1  UNL1        0.1108
     37 N          63.0364   79.7349   10.1666 N.am    1  UNL1       -0.2752
     38 C          62.9359   78.7594    9.0316 C.3     1  UNL1        0.1149
     39 C          62.7474   79.2867   11.5685 C.2     1  UNL1        0.2421
     40 O          62.3578   77.8629   11.8355 O.2     1  UNL1       -0.2734
     41 C          62.8479   80.2622   12.7036 C.3     1  UNL1        0.1586
     42 C          68.3417   96.7567    9.3540 C.3     1  UNL1        0.2526
     43 O          67.0245   96.8560   10.0646 O.3     1  UNL1       -0.4684
     44 O          64.9954   95.1546    8.6546 O.3     1  UNL1       -0.4761
     45 C          66.0095   95.5691    7.6301 C.3     1  UNL1        0.1663
     46 C          65.7733   96.7908    6.7924 C.3     1  UNL1        0.0472
     47 C          67.2600   94.7620    7.4432 C.3     1  UNL1        0.0472
@<TRIPOS>BOND
     1    42    43    1
     2    43     1    1
     3     1     2   ar
     4     2     3   ar
     5     3     4   ar
     6     4     5   ar
     7     5     6   ar
     8     6    44    1
     9    44    45    1
    10    45    46    1
    11    45    47    1
    12     4     7    1
    13     7    12    1
    14    12    13   ar
    15    13    14   ar
    16    14    15   ar
    17    15    16    1
    18    15    17   ar
    19    17    18   ar
    20     7     8    1
    21     8    19    1
    22    19    20   ar
    23    20    21   ar
    24    21    22   ar
    25    22    25    1
    26    25    26    1
    27    25    27    1
    28    28    27    1
    29    28    29    1
    30    29    30    1
    31    30    31    1
    32    31    34    1
    33    34    35    1
    34    35    36    1
    35    36    37    1
    36    37    38    1
    37    37    39   am
    38    39    40    2
    39    39    41    1
    40    31    32    1
    41    32    33    1
    42    22    23   ar
    43    23    24   ar
    44     8     9   am
    45     9    10    2
    46     9    11    1
    47     6     1   ar
    48    18    12   ar
    49    24    19   ar
    50    11     3    1
    51    33    28    1
    52    41    34    1
