@<TRIPOS>MOLECULE
*****
 32 36 0 0 0
SMALL
GASTEIGER

@<TRIPOS>ATOM
      1 N          63.5227   89.6062   12.7692 N.am    1  UNL1       -0.2383
      2 C          63.2560   90.9458   12.1492 C.2     1  UNL1        0.3313
      3 O          63.6800   92.2738   12.7031 O.2     1  UNL1       -0.2501
      4 N          62.4910   90.7242   10.8782 N.am    1  UNL1       -0.1630
      5 C          62.2848   89.2477   10.7126 C.2     1  UNL1        0.0908
      6 C          61.5988   88.4431    9.6486 C.3     1  UNL1        0.1696
      7 N          61.5505   86.9476    9.7534 N.2     1  UNL1       -0.2641
      8 C          62.1882   86.2566   10.9221 C.ar    1  UNL1        0.0778
      9 C          62.1398   84.7610   11.0268 C.ar    1  UNL1        0.0219
     10 C          62.7775   84.0700   12.1956 C.ar    1  UNL1        0.0394
     11 C          63.4635   84.8747   13.2596 C.ar    1  UNL1        0.1389
     12 C          63.5118   86.3702   13.1548 C.ar    1  UNL1        0.0397
     13 C          62.8741   87.0612   11.9861 C.ar    1  UNL1        0.0350
     14 C          62.9225   88.5567   11.8813 C.2     1  UNL1        0.0703
     15 C          62.7292   82.5745   12.3003 C.ar    1  UNL1        0.0526
     16 C          63.3239   81.6027   11.3247 C.ar    1  UNL1        0.1007
     17 C          64.0714   81.9558   10.0731 C.3     1  UNL1        0.0557
     18 N          63.0400   80.2158   11.8205 N.ar    1  UNL1       -0.0817
     19 O          62.2697   80.3304   13.1025 O.2     1  UNL1       -0.3581
     20 C          62.0776   81.7882   13.3990 C.ar    1  UNL1        0.1545
     21 C          61.4054   82.1462   14.5137 C.3     1  UNL1        0.0754
     22 O          64.1012   84.1837   14.4283 O.3     1  UNL1       -0.4714
     23 C          63.8264   84.3778   15.7358 C.3     1  UNL1        0.2525
     24 C          64.2602   89.3594   14.0519 C.3     1  UNL1        0.1037
     25 C          65.0175   90.4753   14.7083 C.ar    1  UNL1       -0.0039
     26 C          64.3884   91.2528   15.8262 C.ar    1  UNL1       -0.0027
     27 C          65.1457   92.3688   16.4827 C.ar    1  UNL1       -0.0003
     28 C          66.5323   92.7073   16.0213 C.ar    1  UNL1       -0.0000
     29 C          67.1614   91.9298   14.9034 C.ar    1  UNL1       -0.0003
     30 C          66.4041   90.8138   14.2469 C.ar    1  UNL1       -0.0027
     31 C          63.6423   87.8057   16.0405 C.3     1  UNL1        0.0021
     32 C          64.2403   87.9964   14.6782 C.3     1  UNL1        0.0248
@<TRIPOS>BOND
     1    31    32    1
     2    24    32    1
     3    24    25    1
     4    25    26   ar
     5    26    27   ar
     6    27    28   ar
     7    28    29   ar
     8    29    30   ar
     9    24     1    1
    10     1     2   am
    11     2     3    2
    12     2     4    1
    13     4     5    2
    14     5     6    1
    15     6     7    1
    16     7     8    2
    17     8     9   ar
    18     9    10   ar
    19    10    15    1
    20    15    16   ar
    21    16    17    1
    22    16    18   ar
    23    18    19   ar
    24    19    20   ar
    25    20    21    1
    26    10    11   ar
    27    11    22    1
    28    22    23    1
    29    11    12   ar
    30    12    13   ar
    31    13    14    2
    32    30    25   ar
    33    14     1    1
    34    14     5    1
    35    13     8   ar
    36    20    15   ar
@<TRIPOS>MOLECULE
*****
 32 36 0 0 0
SMALL
GASTEIGER

@<TRIPOS>ATOM
      1 N          63.7771   90.1410   12.7581 N.am    1  UNL1       -0.2383
      2 C          63.5226   91.4226   12.0214 C.2     1  UNL1        0.3313
      3 O          63.9529   92.7914   12.4587 O.2     1  UNL1       -0.2501
      4 N          62.7621   91.0950   10.7707 N.am    1  UNL1       -0.1630
      5 C          62.5467   89.6110   10.7344 C.2     1  UNL1        0.0908
      6 C          61.8604   88.7205    9.7415 C.3     1  UNL1        0.1696
      7 N          61.8014   87.2403    9.9770 N.2     1  UNL1       -0.2641
      8 C          62.4287   86.6506   11.2053 C.ar    1  UNL1        0.0778
      9 C          62.3697   85.1704   11.4408 C.ar    1  UNL1        0.0219
     10 C          62.9970   84.5807   12.6691 C.ar    1  UNL1        0.0394
     11 C          63.6834   85.4714   13.6620 C.ar    1  UNL1        0.1389
     12 C          63.7424   86.9516   13.4265 C.ar    1  UNL1        0.0397
     13 C          63.1150   87.5412   12.1982 C.ar    1  UNL1        0.0350
     14 C          63.1740   89.0214   11.9627 C.2     1  UNL1        0.0703
     15 C          62.9380   83.1005   12.9046 C.ar    1  UNL1        0.0526
     16 C          62.4002   82.4235   14.1303 C.ar    1  UNL1        0.1007
     17 C          61.8269   83.1079   15.3357 C.3     1  UNL1        0.0557
     18 N          62.5362   80.9420   13.9390 N.ar    1  UNL1       -0.0817
     19 O          63.1582   80.7034   12.5950 O.2     1  UNL1       -0.3581
     20 C          63.4065   82.0374   11.9557 C.ar    1  UNL1        0.1545
     21 C          63.9661   82.0807   10.7279 C.3     1  UNL1        0.0754
     22 O          64.3107   84.8818   14.8903 O.3     1  UNL1       -0.4714
     23 C          64.2548   85.3727   16.1467 C.3     1  UNL1        0.2525
     24 C          64.5067   90.0032   14.0615 C.3     1  UNL1        0.1037
     25 C          65.5709   90.9926   14.4336 C.ar    1  UNL1       -0.0039
     26 C          66.7947   91.1352   13.5779 C.ar    1  UNL1       -0.0027
     27 C          67.8589   92.1246   13.9499 C.ar    1  UNL1       -0.0003
     28 C          67.6994   92.9714   15.1778 C.ar    1  UNL1       -0.0000
     29 C          66.4758   92.8288   16.0335 C.ar    1  UNL1       -0.0003
     30 C          65.4115   91.8394   15.6614 C.ar    1  UNL1       -0.0027
     31 C          63.3160   89.1280   16.1984 C.3     1  UNL1        0.0021
     32 C          64.1721   88.8759   14.9928 C.3     1  UNL1        0.0248
@<TRIPOS>BOND
     1    31    32    1
     2    24    32    1
     3    24    25    1
     4    25    26   ar
     5    26    27   ar
     6    27    28   ar
     7    28    29   ar
     8    29    30   ar
     9    24     1    1
    10     1     2   am
    11     2     3    2
    12     2     4    1
    13     4     5    2
    14     5     6    1
    15     6     7    1
    16     7     8    2
    17     8     9   ar
    18     9    10   ar
    19    10    15    1
    20    15    16   ar
    21    16    17    1
    22    16    18   ar
    23    18    19   ar
    24    19    20   ar
    25    20    21    1
    26    10    11   ar
    27    11    22    1
    28    22    23    1
    29    11    12   ar
    30    12    13   ar
    31    13    14    2
    32    30    25   ar
    33    14     1    1
    34    14     5    1
    35    13     8   ar
    36    20    15   ar
@<TRIPOS>MOLECULE
*****
 32 36 0 0 0
SMALL
GASTEIGER

@<TRIPOS>ATOM
      1 N          63.7047   94.1817   -0.3646 N.am    1  UNL1       -0.2383
      2 C          64.6108   93.5982    0.6788 C.2     1  UNL1        0.3313
      3 O          66.1022   93.7483    0.7351 O.2     1  UNL1       -0.2501
      4 N          63.7636   92.8382    1.6558 N.am    1  UNL1       -0.1630
      5 C          62.3340   92.9520    1.2164 C.2     1  UNL1        0.0908
      6 C          61.0606   92.4068    1.7919 C.3     1  UNL1        0.1696
      7 N          59.7509   92.6919    1.1187 N.2     1  UNL1       -0.2641
      8 C          59.7144   93.5223   -0.1299 C.ar    1  UNL1        0.0778
      9 C          58.4046   93.8074   -0.8031 C.ar    1  UNL1        0.0219
     10 C          58.3682   94.6377   -2.0518 C.ar    1  UNL1        0.0394
     11 C          59.6416   95.1829   -2.6273 C.ar    1  UNL1        0.1389
     12 C          60.9514   94.8978   -1.9541 C.ar    1  UNL1        0.0397
     13 C          60.9878   94.0675   -0.7055 C.ar    1  UNL1        0.0350
     14 C          62.2976   93.7823   -0.0323 C.2     1  UNL1        0.0703
     15 C          57.0584   94.9229   -2.7249 C.ar    1  UNL1        0.0526
     16 C          56.5230   94.2285   -3.9419 C.ar    1  UNL1        0.1007
     17 C          57.2034   93.1270   -4.6994 C.3     1  UNL1        0.0557
     18 N          55.1878   94.8289   -4.2684 N.ar    1  UNL1       -0.0817
     19 O          54.8980   95.8945   -3.2532 O.2     1  UNL1       -0.3581
     20 C          56.0541   95.9525   -2.2993 C.ar    1  UNL1        0.1545
     21 C          56.0229   96.8449   -1.2868 C.3     1  UNL1        0.0754
     22 O          59.6052   96.0133   -3.8760 O.3     1  UNL1       -0.4714
     23 C          59.9058   95.6101   -5.1289 C.3     1  UNL1        0.2525
     24 C          64.1309   95.0178   -1.5347 C.3     1  UNL1        0.1037
     25 C          64.1982   94.4114   -2.9049 C.ar    1  UNL1       -0.0039
     26 C          63.9221   92.9489   -3.0923 C.ar    1  UNL1       -0.0027
     27 C          63.9893   92.3425   -4.4626 C.ar    1  UNL1       -0.0003
     28 C          64.3327   93.1985   -5.6456 C.ar    1  UNL1       -0.0000
     29 C          64.6088   94.6609   -5.4582 C.ar    1  UNL1       -0.0003
     30 C          64.5416   95.2674   -4.0879 C.ar    1  UNL1       -0.0027
     31 C          65.8930   96.8397   -0.9637 C.3     1  UNL1        0.0021
     32 C          64.4900   96.4605   -1.3346 C.3     1  UNL1        0.0248
@<TRIPOS>BOND
     1    31    32    1
     2    24    32    1
     3    24    25    1
     4    25    26   ar
     5    26    27   ar
     6    27    28   ar
     7    28    29   ar
     8    29    30   ar
     9    24     1    1
    10     1     2   am
    11     2     3    2
    12     2     4    1
    13     4     5    2
    14     5     6    1
    15     6     7    1
    16     7     8    2
    17     8     9   ar
    18     9    10   ar
    19    10    15    1
    20    15    16   ar
    21    16    17    1
    22    16    18   ar
    23    18    19   ar
    24    19    20   ar
    25    20    21    1
    26    10    11   ar
    27    11    22    1
    28    22    23    1
    29    11    12   ar
    30    12    13   ar
    31    13    14    2
    32    30    25   ar
    33    14     1    1
    34    14     5    1
    35    13     8   ar
    36    20    15   ar
@<TRIPOS>MOLECULE
*****
 32 36 0 0 0
SMALL
GASTEIGER

@<TRIPOS>ATOM
      1 N          63.5135   94.2216   -1.1479 N.am    1  UNL1       -0.2383
      2 C          64.3076   93.8485    0.0687 C.2     1  UNL1        0.3313
      3 O          65.7517   94.1725    0.3125 O.2     1  UNL1       -0.2501
      4 N          63.4039   93.0946    0.9988 N.am    1  UNL1       -0.1630
      5 C          62.0513   93.0017    0.3570 C.2     1  UNL1        0.0908
      6 C          60.7668   92.3729    0.8093 C.3     1  UNL1        0.1696
      7 N          59.5500   92.4407   -0.0652 N.2     1  UNL1       -0.2641
      8 C          59.6177   93.1372   -1.3919 C.ar    1  UNL1        0.0778
      9 C          58.4008   93.2050   -2.2664 C.ar    1  UNL1        0.0219
     10 C          58.4685   93.9015   -3.5932 C.ar    1  UNL1        0.0394
     11 C          59.7531   94.5304   -4.0454 C.ar    1  UNL1        0.1389
     12 C          60.9699   94.4626   -3.1709 C.ar    1  UNL1        0.0397
     13 C          60.9022   93.7661   -1.8442 C.ar    1  UNL1        0.0350
     14 C          62.1190   93.6983   -0.9697 C.2     1  UNL1        0.0703
     15 C          57.2517   93.9693   -4.4676 C.ar    1  UNL1        0.0526
     16 C          56.3403   95.1508   -4.6202 C.ar    1  UNL1        0.1007
     17 C          56.4857   96.4721   -3.9251 C.3     1  UNL1        0.0557
     18 N          55.2580   94.7792   -5.5899 N.ar    1  UNL1       -0.0817
     19 O          55.5004   93.3679   -6.0367 O.2     1  UNL1       -0.3581
     20 C          56.7326   92.8674   -5.3431 C.ar    1  UNL1        0.1545
     21 C          57.1557   91.6089   -5.5876 C.3     1  UNL1        0.0754
     22 O          59.8208   95.2269   -5.3721 O.3     1  UNL1       -0.4714
     23 C          60.4705   94.8064   -6.4784 C.3     1  UNL1        0.2525
     24 C          64.0241   94.9842   -2.3344 C.3     1  UNL1        0.1037
     25 C          64.1936   94.2923   -3.6543 C.ar    1  UNL1       -0.0039
     26 C          64.3043   95.0981   -4.9148 C.ar    1  UNL1       -0.0027
     27 C          64.4739   94.4062   -6.2348 C.ar    1  UNL1       -0.0003
     28 C          64.5327   92.9085   -6.2945 C.ar    1  UNL1       -0.0000
     29 C          64.4220   92.1028   -5.0341 C.ar    1  UNL1       -0.0003
     30 C          64.2524   92.7947   -3.7141 C.ar    1  UNL1       -0.0027
     31 C          65.7822   96.8560   -1.9395 C.3     1  UNL1        0.0021
     32 C          64.3652   96.4389   -2.2008 C.3     1  UNL1        0.0248
@<TRIPOS>BOND
     1    31    32    1
     2    24    32    1
     3    24    25    1
     4    25    26   ar
     5    26    27   ar
     6    27    28   ar
     7    28    29   ar
     8    29    30   ar
     9    24     1    1
    10     1     2   am
    11     2     3    2
    12     2     4    1
    13     4     5    2
    14     5     6    1
    15     6     7    1
    16     7     8    2
    17     8     9   ar
    18     9    10   ar
    19    10    15    1
    20    15    16   ar
    21    16    17    1
    22    16    18   ar
    23    18    19   ar
    24    19    20   ar
    25    20    21    1
    26    10    11   ar
    27    11    22    1
    28    22    23    1
    29    11    12   ar
    30    12    13   ar
    31    13    14    2
    32    30    25   ar
    33    14     1    1
    34    14     5    1
    35    13     8   ar
    36    20    15   ar
@<TRIPOS>MOLECULE
*****
 32 36 0 0 0
SMALL
GASTEIGER

@<TRIPOS>ATOM
      1 N          66.5548   92.8498   14.0196 N.am    1  UNL1       -0.2383
      2 C          67.2553   93.3956   15.2284 C.2     1  UNL1        0.3313
      3 O          68.4632   94.2849   15.2209 O.2     1  UNL1       -0.2501
      4 N          66.5358   92.8961   16.4461 N.am    1  UNL1       -0.1630
      5 C          65.3906   92.0415   15.9898 C.2     1  UNL1        0.0908
      6 C          64.3387   91.2856   16.7462 C.3     1  UNL1        0.1696
      7 N          63.2985   90.5012   16.0029 N.2     1  UNL1       -0.2641
      8 C          63.3102   90.4726   14.5032 C.ar    1  UNL1        0.0778
      9 C          62.2699   89.6881   13.7599 C.ar    1  UNL1        0.0219
     10 C          62.2816   89.6594   12.2602 C.ar    1  UNL1        0.0394
     11 C          63.3336   90.4153   11.5038 C.ar    1  UNL1        0.1389
     12 C          64.3739   91.1998   12.2471 C.ar    1  UNL1        0.0397
     13 C          64.3621   91.2284   13.7468 C.ar    1  UNL1        0.0350
     14 C          65.4023   92.0128   14.4901 C.2     1  UNL1        0.0703
     15 C          61.2414   88.8750   11.5169 C.ar    1  UNL1        0.0526
     16 C          59.8687   89.3562   11.1509 C.ar    1  UNL1        0.1007
     17 C          59.2951   90.7064   11.4641 C.3     1  UNL1        0.0557
     18 N          59.1702   88.2502   10.4169 N.ar    1  UNL1       -0.0817
     19 O          60.1112   87.0854   10.3291 O.2     1  UNL1       -0.3581
     20 C          61.3913   87.4716   11.0090 C.ar    1  UNL1        0.1545
     21 C          62.4013   86.5772   11.0591 C.3     1  UNL1        0.0754
     22 O          63.3454   90.3867   10.0041 O.3     1  UNL1       -0.4714
     23 C          62.4353   90.9390    9.1738 C.3     1  UNL1        0.2525
     24 C          66.9392   93.0973   12.5910 C.3     1  UNL1        0.1037
     25 C          66.3977   94.2929   11.8649 C.ar    1  UNL1       -0.0039
     26 C          66.5249   95.6593   12.4706 C.ar    1  UNL1       -0.0027
     27 C          65.9833   96.8550   11.7446 C.ar    1  UNL1       -0.0003
     28 C          65.3146   96.6842   10.4128 C.ar    1  UNL1       -0.0000
     29 C          65.1874   95.3179    9.8071 C.ar    1  UNL1       -0.0003
     30 C          65.7289   94.1222   10.5331 C.ar    1  UNL1       -0.0027
     31 C          68.0395   92.2350   10.4009 C.3     1  UNL1        0.0021
     32 C          67.8652   92.1492   11.8883 C.3     1  UNL1        0.0248
@<TRIPOS>BOND
     1    31    32    1
     2    24    32    1
     3    24    25    1
     4    25    26   ar
     5    26    27   ar
     6    27    28   ar
     7    28    29   ar
     8    29    30   ar
     9    24     1    1
    10     1     2   am
    11     2     3    2
    12     2     4    1
    13     4     5    2
    14     5     6    1
    15     6     7    1
    16     7     8    2
    17     8     9   ar
    18     9    10   ar
    19    10    15    1
    20    15    16   ar
    21    16    17    1
    22    16    18   ar
    23    18    19   ar
    24    19    20   ar
    25    20    21    1
    26    10    11   ar
    27    11    22    1
    28    22    23    1
    29    11    12   ar
    30    12    13   ar
    31    13    14    2
    32    30    25   ar
    33    14     1    1
    34    14     5    1
    35    13     8   ar
    36    20    15   ar
@<TRIPOS>MOLECULE
*****
 32 36 0 0 0
SMALL
GASTEIGER

@<TRIPOS>ATOM
      1 N          57.6082   93.4627   -2.6575 N.am    1  UNL1       -0.2383
      2 C          56.7424   92.9313   -1.5539 C.2     1  UNL1        0.3313
      3 O          55.2430   92.8876   -1.5528 O.2     1  UNL1       -0.2501
      4 N          57.6392   92.4514   -0.4515 N.am    1  UNL1       -0.1630
      5 C          59.0593   92.6862   -0.8738 C.2     1  UNL1        0.0908
      6 C          60.3674   92.4116   -0.1930 C.3     1  UNL1        0.1696
      7 N          61.6562   92.7620   -0.8756 N.2     1  UNL1       -0.2641
      8 C          61.6370   93.3870   -2.2391 C.ar    1  UNL1        0.0778
      9 C          62.9259   93.7375   -2.9217 C.ar    1  UNL1        0.0219
     10 C          62.9067   94.3625   -4.2851 C.ar    1  UNL1        0.0394
     11 C          61.5986   94.6371   -4.9659 C.ar    1  UNL1        0.1389
     12 C          60.3097   94.2867   -4.2833 C.ar    1  UNL1        0.0397
     13 C          60.3289   93.6617   -2.9199 C.ar    1  UNL1        0.0350
     14 C          59.0401   93.3112   -2.2372 C.2     1  UNL1        0.0703
     15 C          64.1956   94.7130   -4.9678 C.ar    1  UNL1        0.0526
     16 C          64.8217   93.9646   -6.1070 C.ar    1  UNL1        0.1007
     17 C          64.2689   92.7345   -6.7637 C.3     1  UNL1        0.0557
     18 N          66.0977   94.6624   -6.4744 N.ar    1  UNL1       -0.0817
     19 O          66.2602   95.8420   -5.5621 O.2     1  UNL1       -0.3581
     20 C          65.0846   95.8732   -4.6310 C.ar    1  UNL1        0.1545
     21 C          65.0069   96.8552   -3.7078 C.3     1  UNL1        0.0754
     22 O          61.5794   95.2622   -6.3294 O.3     1  UNL1       -0.4714
     23 C          61.1268   94.7045   -7.4725 C.3     1  UNL1        0.2525
     24 C          57.1266   94.0437   -3.9539 C.3     1  UNL1        0.1037
     25 C          56.8840   93.1486   -5.1328 C.ar    1  UNL1       -0.0039
     26 C          57.7365   93.2773   -6.3603 C.ar    1  UNL1       -0.0027
     27 C          57.4940   92.3822   -7.5392 C.ar    1  UNL1       -0.0003
     28 C          56.3988   91.3582   -7.4907 C.ar    1  UNL1       -0.0000
     29 C          55.5463   91.2295   -6.2632 C.ar    1  UNL1       -0.0003
     30 C          55.7889   92.1246   -5.0843 C.ar    1  UNL1       -0.0027
     31 C          57.3553   96.4441   -2.9865 C.3     1  UNL1        0.0021
     32 C          56.8876   95.5199   -4.0714 C.3     1  UNL1        0.0248
@<TRIPOS>BOND
     1    31    32    1
     2    24    32    1
     3    24    25    1
     4    25    26   ar
     5    26    27   ar
     6    27    28   ar
     7    28    29   ar
     8    29    30   ar
     9    24     1    1
    10     1     2   am
    11     2     3    2
    12     2     4    1
    13     4     5    2
    14     5     6    1
    15     6     7    1
    16     7     8    2
    17     8     9   ar
    18     9    10   ar
    19    10    15    1
    20    15    16   ar
    21    16    17    1
    22    16    18   ar
    23    18    19   ar
    24    19    20   ar
    25    20    21    1
    26    10    11   ar
    27    11    22    1
    28    22    23    1
    29    11    12   ar
    30    12    13   ar
    31    13    14    2
    32    30    25   ar
    33    14     1    1
    34    14     5    1
    35    13     8   ar
    36    20    15   ar
@<TRIPOS>MOLECULE
*****
 32 36 0 0 0
SMALL
GASTEIGER

@<TRIPOS>ATOM
      1 N          63.4042   89.3590   14.7896 N.am    1  UNL1       -0.2383
      2 C          63.4222   90.2951   15.9615 C.2     1  UNL1        0.3313
      3 O          63.5167   91.7906   15.8941 O.2     1  UNL1       -0.2501
      4 N          63.3291   89.4730   17.2127 N.am    1  UNL1       -0.1630
      5 C          63.2536   88.0289   16.8141 C.2     1  UNL1        0.0908
      6 C          63.1485   86.7690   17.6213 C.3     1  UNL1        0.1696
      7 N          63.0899   85.4387   16.9308 N.2     1  UNL1       -0.2641
      8 C          63.1363   85.3683   15.4332 C.ar    1  UNL1        0.0778
      9 C          63.0776   84.0379   14.7428 C.ar    1  UNL1        0.0219
     10 C          63.1240   83.9674   13.2451 C.ar    1  UNL1        0.0394
     11 C          63.2291   85.2274   12.4379 C.ar    1  UNL1        0.1389
     12 C          63.2877   86.5577   13.1284 C.ar    1  UNL1        0.0397
     13 C          63.2413   86.6282   14.6260 C.ar    1  UNL1        0.0350
     14 C          63.3000   87.9585   15.3165 C.2     1  UNL1        0.0703
     15 C          63.0654   82.6371   12.5547 C.ar    1  UNL1        0.0526
     16 C          62.2437   81.4573   12.9823 C.ar    1  UNL1        0.1007
     17 C          61.3365   81.4006   14.1755 C.3     1  UNL1        0.0557
     18 N          62.4886   80.3440   12.0073 N.ar    1  UNL1       -0.0817
     19 O          63.4616   80.8358   10.9770 O.2     1  UNL1       -0.3581
     20 C          63.8181   82.2530   11.3153 C.ar    1  UNL1        0.1545
     21 C          64.6877   82.9159   10.5237 C.3     1  UNL1        0.0754
     22 O          63.2754   85.1570   10.9403 O.3     1  UNL1       -0.4714
     23 C          62.3676   85.6565   10.0749 C.3     1  UNL1        0.2525
     24 C          63.4775   89.7542   13.3444 C.3     1  UNL1        0.1037
     25 C          64.4802   90.7756   12.8960 C.ar    1  UNL1       -0.0039
     26 C          65.6899   91.0586   13.7368 C.ar    1  UNL1       -0.0027
     27 C          66.6927   92.0800   13.2885 C.ar    1  UNL1       -0.0003
     28 C          66.4859   92.8185   11.9993 C.ar    1  UNL1       -0.0000
     29 C          65.2763   92.5355   11.1586 C.ar    1  UNL1       -0.0003
     30 C          64.2735   91.5141   11.6069 C.ar    1  UNL1       -0.0027
     31 C          61.2397   89.7868   12.0247 C.3     1  UNL1        0.0021
     32 C          62.5479   89.1278   12.3475 C.3     1  UNL1        0.0248
@<TRIPOS>BOND
     1    31    32    1
     2    24    32    1
     3    24    25    1
     4    25    26   ar
     5    26    27   ar
     6    27    28   ar
     7    28    29   ar
     8    29    30   ar
     9    24     1    1
    10     1     2   am
    11     2     3    2
    12     2     4    1
    13     4     5    2
    14     5     6    1
    15     6     7    1
    16     7     8    2
    17     8     9   ar
    18     9    10   ar
    19    10    15    1
    20    15    16   ar
    21    16    17    1
    22    16    18   ar
    23    18    19   ar
    24    19    20   ar
    25    20    21    1
    26    10    11   ar
    27    11    22    1
    28    22    23    1
    29    11    12   ar
    30    12    13   ar
    31    13    14    2
    32    30    25   ar
    33    14     1    1
    34    14     5    1
    35    13     8   ar
    36    20    15   ar
@<TRIPOS>MOLECULE
*****
 32 36 0 0 0
SMALL
GASTEIGER

@<TRIPOS>ATOM
      1 N          63.4307   89.3985   14.7852 N.am    1  UNL1       -0.2383
      2 C          63.4381   90.3315   15.9597 C.2     1  UNL1        0.3313
      3 O          63.5486   91.8261   15.8978 O.2     1  UNL1       -0.2501
      4 N          63.3157   89.5074   17.2071 N.am    1  UNL1       -0.1630
      5 C          63.2326   88.0651   16.8035 C.2     1  UNL1        0.0908
      6 C          63.1015   86.8044   17.6056 C.3     1  UNL1        0.1696
      7 N          63.0413   85.4764   16.9108 N.2     1  UNL1       -0.2641
      8 C          63.1123   85.4091   15.4140 C.ar    1  UNL1        0.0778
      9 C          63.0522   84.0810   14.7193 C.ar    1  UNL1        0.0219
     10 C          63.1232   84.0136   13.2225 C.ar    1  UNL1        0.0394
     11 C          63.2544   85.2745   12.4204 C.ar    1  UNL1        0.1389
     12 C          63.3145   86.6025   13.1151 C.ar    1  UNL1        0.0397
     13 C          63.2435   86.6698   14.6120 C.ar    1  UNL1        0.0350
     14 C          63.3037   87.9978   15.3067 C.2     1  UNL1        0.0703
     15 C          63.0631   82.6856   12.5277 C.ar    1  UNL1        0.0526
     16 C          62.2365   81.5069   12.9489 C.ar    1  UNL1        0.1007
     17 C          61.3250   81.4493   14.1388 C.3     1  UNL1        0.0557
     18 N          62.4815   80.3959   11.9713 N.ar    1  UNL1       -0.0817
     19 O          63.4595   80.8880   10.9459 O.2     1  UNL1       -0.3581
     20 C          63.8189   82.3031   11.2898 C.ar    1  UNL1        0.1545
     21 C          64.6932   82.9659   10.5032 C.3     1  UNL1        0.0754
     22 O          63.3254   85.2072   10.9236 O.3     1  UNL1       -0.4714
     23 C          62.3677   85.5780   10.0473 C.3     1  UNL1        0.2525
     24 C          63.5323   89.7963   13.3425 C.3     1  UNL1        0.1037
     25 C          62.3695   89.5781   12.4206 C.ar    1  UNL1       -0.0039
     26 C          60.9676   89.6806   12.9443 C.ar    1  UNL1       -0.0027
     27 C          59.8047   89.4624   12.0223 C.ar    1  UNL1       -0.0003
     28 C          60.0437   89.1416   10.5766 C.ar    1  UNL1       -0.0000
     29 C          61.4455   89.0391   10.0530 C.ar    1  UNL1       -0.0003
     30 C          62.6084   89.2573   10.9749 C.ar    1  UNL1       -0.0027
     31 C          64.8732   91.8939   12.5991 C.3     1  UNL1        0.0021
     32 C          64.7970   90.4125   12.8218 C.3     1  UNL1        0.0248
@<TRIPOS>BOND
     1    31    32    1
     2    24    32    1
     3    24    25    1
     4    25    26   ar
     5    26    27   ar
     6    27    28   ar
     7    28    29   ar
     8    29    30   ar
     9    24     1    1
    10     1     2   am
    11     2     3    2
    12     2     4    1
    13     4     5    2
    14     5     6    1
    15     6     7    1
    16     7     8    2
    17     8     9   ar
    18     9    10   ar
    19    10    15    1
    20    15    16   ar
    21    16    17    1
    22    16    18   ar
    23    18    19   ar
    24    19    20   ar
    25    20    21    1
    26    10    11   ar
    27    11    22    1
    28    22    23    1
    29    11    12   ar
    30    12    13   ar
    31    13    14    2
    32    30    25   ar
    33    14     1    1
    34    14     5    1
    35    13     8   ar
    36    20    15   ar
@<TRIPOS>MOLECULE
*****
 32 36 0 0 0
SMALL
GASTEIGER

@<TRIPOS>ATOM
      1 N          61.0401   92.8254    1.6278 N.am    1  UNL1       -0.2383
      2 C          60.0063   92.5265    2.6727 C.2     1  UNL1        0.3313
      3 O          60.2742   92.2297    4.1185 O.2     1  UNL1       -0.2501
      4 N          58.6577   92.5764    2.0181 N.am    1  UNL1       -0.1630
      5 C          58.8579   92.9062    0.5685 C.2     1  UNL1        0.0908
      6 C          57.8897   93.0863   -0.5629 C.3     1  UNL1        0.1696
      7 N          58.3940   93.4203   -1.9355 N.2     1  UNL1       -0.2641
      8 C          59.8664   93.5742   -2.1767 C.ar    1  UNL1        0.0778
      9 C          60.3706   93.9082   -3.5494 C.ar    1  UNL1        0.0219
     10 C          61.8431   94.0621   -3.7906 C.ar    1  UNL1        0.0394
     11 C          62.8113   93.8821   -2.6591 C.ar    1  UNL1        0.1389
     12 C          62.3071   93.5481   -1.2865 C.ar    1  UNL1        0.0397
     13 C          60.8346   93.3941   -1.0453 C.ar    1  UNL1        0.0350
     14 C          60.3304   93.0601    0.3273 C.2     1  UNL1        0.0703
     15 C          62.3474   94.3961   -5.1632 C.ar    1  UNL1        0.0526
     16 C          61.9907   95.6152   -5.9611 C.ar    1  UNL1        0.1007
     17 C          61.0672   96.7144   -5.5264 C.3     1  UNL1        0.0557
     18 N          62.7197   95.5422   -7.2700 N.ar    1  UNL1       -0.0817
     19 O          63.5270   94.2780   -7.2811 O.2     1  UNL1       -0.3581
     20 C          63.2968   93.5697   -5.9791 C.ar    1  UNL1        0.1545
     21 C          63.9234   92.3954   -5.7532 C.3     1  UNL1        0.0754
     22 O          64.2838   94.0360   -2.9003 O.3     1  UNL1       -0.4714
     23 C          65.0127   95.1662   -2.7821 C.3     1  UNL1        0.2525
     24 C          62.5233   92.8801    1.8451 C.3     1  UNL1        0.1037
     25 C          63.2213   94.2053    1.9246 C.ar    1  UNL1       -0.0039
     26 C          62.4906   95.4615    1.5527 C.ar    1  UNL1       -0.0027
     27 C          63.1886   96.7868    1.6322 C.ar    1  UNL1       -0.0003
     28 C          64.6174   96.8560    2.0837 C.ar    1  UNL1       -0.0000
     29 C          65.3481   95.5999    2.4556 C.ar    1  UNL1       -0.0003
     30 C          64.6501   94.2746    2.3761 C.ar    1  UNL1       -0.0027
     31 C          63.3968   90.9229    3.3137 C.3     1  UNL1        0.0021
     32 C          63.3085   91.6094    1.9829 C.3     1  UNL1        0.0248
@<TRIPOS>BOND
     1    31    32    1
     2    24    32    1
     3    24    25    1
     4    25    26   ar
     5    26    27   ar
     6    27    28   ar
     7    28    29   ar
     8    29    30   ar
     9    24     1    1
    10     1     2   am
    11     2     3    2
    12     2     4    1
    13     4     5    2
    14     5     6    1
    15     6     7    1
    16     7     8    2
    17     8     9   ar
    18     9    10   ar
    19    10    15    1
    20    15    16   ar
    21    16    17    1
    22    16    18   ar
    23    18    19   ar
    24    19    20   ar
    25    20    21    1
    26    10    11   ar
    27    11    22    1
    28    22    23    1
    29    11    12   ar
    30    12    13   ar
    31    13    14    2
    32    30    25   ar
    33    14     1    1
    34    14     5    1
    35    13     8   ar
    36    20    15   ar
