@<TRIPOS>MOLECULE
*****
 35 37 0 0 0
SMALL
GASTEIGER

@<TRIPOS>ATOM
      1 C          61.1018   89.2796    9.9619 C.ar    1  UNL1        0.1389
      2 N          60.5100   90.0247    8.8023 N.ar    1  UNL1       -0.2229
      3 C          59.8636   89.2711    7.6780 C.ar    1  UNL1        0.1740
      4 C          59.8090   87.7725    7.7132 C.ar    1  UNL1        0.2130
      5 O          59.1626   87.0189    6.5887 O.3     1  UNL1       -0.5006
      6 C          60.4008   87.0275    8.8728 C.ar    1  UNL1        0.2973
      7 O          60.3462   85.5289    8.9080 O.2     1  UNL1       -0.2636
      8 N          61.0472   87.7811    9.9971 N.ar    1  UNL1       -0.2783
      9 C          61.6391   87.0360   11.1568 C.3     1  UNL1        0.1349
     10 H          58.7929   87.4843    5.8644 H       1  UNL1        0.2924
     11 C          59.2718   90.0161    6.5183 C.2     1  UNL1        0.2671
     12 O          57.8126   89.8735    6.2012 O.2     1  UNL1       -0.2684
     13 N          60.1391   90.9037    5.6758 N.am    1  UNL1       -0.2956
     14 H          61.0968   90.9973    5.8839 H       1  UNL1        0.1501
     15 C          59.5473   91.6487    4.5162 C.3     1  UNL1        0.1166
     16 C          60.4380   92.1773    3.4311 C.ar    1  UNL1       -0.0024
     17 C          61.9023   91.8523    3.4379 C.ar    1  UNL1       -0.0003
     18 C          62.7929   92.3809    2.3528 C.ar    1  UNL1        0.0294
     19 C          62.2192   93.2344    1.2609 C.ar    1  UNL1        0.1401
     20 F          63.1098   93.7630    0.1759 F       1  UNL1       -0.2042
     21 C          60.7548   93.5595    1.2541 C.ar    1  UNL1        0.0294
     22 C          59.8642   93.0309    2.3392 C.ar    1  UNL1       -0.0003
     23 C          61.7483   90.0332   11.0864 C.3     1  UNL1        0.1078
     24 C          62.9723   90.2396   10.2443 C.3     1  UNL1        0.0274
     25 C          60.5242   89.8269   11.9284 C.3     1  UNL1        0.0274
     26 C          63.3269   90.0796   13.1493 C.2     1  UNL1        0.3015
     27 O          63.6127   88.6189   12.9634 O.2     1  UNL1       -0.2649
     28 N          62.3947   90.7868   12.2107 N.am    1  UNL1       -0.2938
     29 H          62.2071   91.7455   12.3327 H       1  UNL1        0.1502
     30 C          66.8326   92.8042   16.0070 C.3     1  UNL1        0.0967
     31 C          65.5848   92.0856   15.5872 C.ar    1  UNL1        0.2271
     32 N          64.3514   91.9002   16.4206 N.ar    1  UNL1       -0.1112
     33 N          63.3554   91.1261   15.6087 N.ar    1  UNL1       -0.1024
     34 C          63.9734   90.8332   14.2737 C.ar    1  UNL1        0.3038
     35 O          65.3511   91.4261   14.2604 O.2     1  UNL1       -0.4162
@<TRIPOS>BOND
     1    30    31    1
     2    31    32   ar
     3    32    33   ar
     4    33    34   ar
     5    34    26    1
     6    26    27    2
     7    26    28   am
     8    28    23    1
     9    23    24    1
    10    23    25    1
    11    23     1    1
    12     1     2   ar
    13     2     3   ar
    14     3    11    1
    15    11    12    2
    16    11    13   am
    17    13    15    1
    18    15    16    1
    19    16    17   ar
    20    17    18   ar
    21    18    19   ar
    22    19    20    1
    23    19    21   ar
    24    21    22   ar
    25     3     4   ar
    26     4     5    1
    27     4     6   ar
    28     6     7    2
    29     6     8   ar
    30     8     9    1
    31    34    35   ar
    32    35    31   ar
    33     8     1   ar
    34    22    16   ar
    35    28    29    1
    36    13    14    1
    37     5    10    1
@<TRIPOS>MOLECULE
*****
 35 37 0 0 0
SMALL
GASTEIGER

@<TRIPOS>ATOM
      1 C          63.7302   86.9273   14.2300 C.ar    1  UNL1        0.1389
      2 N          64.0367   88.1628   13.4366 N.ar    1  UNL1       -0.2229
      3 C          64.0400   89.5039   14.1084 C.ar    1  UNL1        0.1740
      4 C          63.7370   89.6095   15.5737 C.ar    1  UNL1        0.2130
      5 O          63.7404   90.9507   16.2455 O.3     1  UNL1       -0.5006
      6 C          63.4306   88.3740   16.3671 C.ar    1  UNL1        0.2973
      7 O          63.1275   88.4796   17.8324 O.2     1  UNL1       -0.2636
      8 N          63.4272   87.0329   15.6953 N.ar    1  UNL1       -0.2783
      9 C          63.1208   85.7973   16.4888 C.3     1  UNL1        0.1349
     10 H          63.9318   91.7225   15.7499 H       1  UNL1        0.2924
     11 C          64.3464   90.7395   13.3150 C.2     1  UNL1        0.2671
     12 O          63.6292   90.9985   12.0233 O.2     1  UNL1       -0.2684
     13 N          65.3701   91.7161   13.8133 N.am    1  UNL1       -0.2956
     14 H          65.8409   91.5462   14.6611 H       1  UNL1        0.1501
     15 C          65.6766   92.9517   13.0199 C.3     1  UNL1        0.1166
     16 C          66.5037   92.8559   11.7723 C.ar    1  UNL1       -0.0024
     17 C          67.6364   91.8755   11.6968 C.ar    1  UNL1       -0.0003
     18 C          68.4636   91.7798   10.4491 C.ar    1  UNL1        0.0294
     19 C          68.1581   92.6644    9.2770 C.ar    1  UNL1        0.1401
     20 F          68.9852   92.5687    8.0293 F       1  UNL1       -0.2042
     21 C          67.0253   93.6449    9.3524 C.ar    1  UNL1        0.0294
     22 C          66.1981   93.7407   10.6001 C.ar    1  UNL1       -0.0003
     23 C          63.7269   85.5861   13.5582 C.3     1  UNL1        0.1078
     24 C          64.8109   85.1197   14.4841 C.3     1  UNL1        0.0274
     25 C          62.6429   86.0526   12.6323 C.3     1  UNL1        0.0274
     26 C          62.7950   83.1687   13.3653 C.2     1  UNL1        0.3015
     27 O          61.8698   83.4334   14.5158 O.2     1  UNL1       -0.2649
     28 N          63.7235   84.2450   12.8865 N.am    1  UNL1       -0.2938
     29 H          64.3308   84.0712   12.1313 H       1  UNL1        0.1502
     30 C          62.9316   79.4061    9.6632 C.3     1  UNL1        0.0967
     31 C          62.8544   80.0980   10.9918 C.ar    1  UNL1        0.2271
     32 N          62.7187   79.4292   12.3276 N.ar    1  UNL1       -0.1112
     33 N          62.6799   80.4982   13.3793 N.ar    1  UNL1       -0.1024
     34 C          62.7917   81.8275   12.6934 C.ar    1  UNL1        0.3038
     35 O          62.8995   81.5802   11.2179 O.2     1  UNL1       -0.4162
@<TRIPOS>BOND
     1    30    31    1
     2    31    32   ar
     3    32    33   ar
     4    33    34   ar
     5    34    26    1
     6    26    27    2
     7    26    28   am
     8    28    23    1
     9    23    24    1
    10    23    25    1
    11    23     1    1
    12     1     2   ar
    13     2     3   ar
    14     3    11    1
    15    11    12    2
    16    11    13   am
    17    13    15    1
    18    15    16    1
    19    16    17   ar
    20    17    18   ar
    21    18    19   ar
    22    19    20    1
    23    19    21   ar
    24    21    22   ar
    25     3     4   ar
    26     4     5    1
    27     4     6   ar
    28     6     7    2
    29     6     8   ar
    30     8     9    1
    31    34    35   ar
    32    35    31   ar
    33     8     1   ar
    34    22    16   ar
    35    28    29    1
    36    13    14    1
    37     5    10    1
@<TRIPOS>MOLECULE
*****
 35 37 0 0 0
SMALL
GASTEIGER

@<TRIPOS>ATOM
      1 C          61.8549   88.8161   10.4979 C.ar    1  UNL1        0.1389
      2 N          62.4829   87.4721   10.2767 N.ar    1  UNL1       -0.2229
      3 C          61.9169   86.5402    9.2466 C.ar    1  UNL1        0.1740
      4 C          60.7228   86.9523    8.4378 C.ar    1  UNL1        0.2130
      5 O          60.1567   86.0203    7.4077 O.3     1  UNL1       -0.5006
      6 C          60.0947   88.2964    8.6589 C.ar    1  UNL1        0.2973
      7 O          58.9006   88.7086    7.8501 O.2     1  UNL1       -0.2636
      8 N          60.6608   89.2283    9.6890 N.ar    1  UNL1       -0.2783
      9 C          60.0328   90.5725    9.9102 C.3     1  UNL1        0.1349
     10 H          60.5490   85.1807    7.2695 H       1  UNL1        0.2924
     11 C          62.5449   85.1960    9.0254 C.2     1  UNL1        0.2671
     12 O          62.5863   84.6052    7.6473 O.2     1  UNL1       -0.2684
     13 N          63.1315   84.4427   10.1823 N.am    1  UNL1       -0.2956
     14 H          63.1044   84.8305   11.0868 H       1  UNL1        0.1501
     15 C          63.7595   83.0986    9.9611 C.3     1  UNL1        0.1166
     16 C          63.4156   81.9521   10.8651 C.ar    1  UNL1       -0.0024
     17 C          63.0866   80.6098   10.2821 C.ar    1  UNL1       -0.0003
     18 C          62.7426   79.4634   11.1862 C.ar    1  UNL1        0.0294
     19 C          62.7277   79.6592   12.6732 C.ar    1  UNL1        0.1401
     20 F          62.3837   78.5127   13.5773 F       1  UNL1       -0.2042
     21 C          63.0567   81.0015   13.2563 C.ar    1  UNL1        0.0294
     22 C          63.4007   82.1480   12.3523 C.ar    1  UNL1       -0.0003
     23 C          62.4210   89.7481   11.5280 C.3     1  UNL1        0.1078
     24 C          63.4421   90.2229   10.5372 C.3     1  UNL1        0.0274
     25 C          61.3998   89.2733   12.5188 C.3     1  UNL1        0.0274
     26 C          63.8948   90.1521   13.6290 C.2     1  UNL1        0.3015
     27 O          64.2365   88.6922   13.6701 O.2     1  UNL1       -0.2649
     28 N          62.9870   90.6801   12.5580 N.am    1  UNL1       -0.2938
     29 H          62.7628   91.6383   12.5310 H       1  UNL1        0.1502
     30 C          67.2444   93.2022   16.3415 C.3     1  UNL1        0.0967
     31 C          66.0005   92.4862   15.9059 C.ar    1  UNL1        0.2271
     32 N          64.6632   92.5507   16.5824 N.ar    1  UNL1       -0.1112
     33 N          63.7117   91.6841   15.8118 N.ar    1  UNL1       -0.1024
     34 C          64.4609   91.0842   14.6591 C.ar    1  UNL1        0.3038
     35 O          65.8754   91.5798   14.7172 O.2     1  UNL1       -0.4162
@<TRIPOS>BOND
     1    30    31    1
     2    31    32   ar
     3    32    33   ar
     4    33    34   ar
     5    34    26    1
     6    26    27    2
     7    26    28   am
     8    28    23    1
     9    23    24    1
    10    23    25    1
    11    23     1    1
    12     1     2   ar
    13     2     3   ar
    14     3    11    1
    15    11    12    2
    16    11    13   am
    17    13    15    1
    18    15    16    1
    19    16    17   ar
    20    17    18   ar
    21    18    19   ar
    22    19    20    1
    23    19    21   ar
    24    21    22   ar
    25     3     4   ar
    26     4     5    1
    27     4     6   ar
    28     6     7    2
    29     6     8   ar
    30     8     9    1
    31    34    35   ar
    32    35    31   ar
    33     8     1   ar
    34    22    16   ar
    35    28    29    1
    36    13    14    1
    37     5    10    1
@<TRIPOS>MOLECULE
*****
 35 37 0 0 0
SMALL
GASTEIGER

@<TRIPOS>ATOM
      1 C          64.0651   89.8132   14.1690 C.ar    1  UNL1        0.1389
      2 N          64.0965   88.5124   13.4228 N.ar    1  UNL1       -0.2229
      3 C          63.8039   87.2286   14.1411 C.ar    1  UNL1        0.1740
      4 C          63.4798   87.2456   15.6056 C.ar    1  UNL1        0.2130
      5 O          63.1872   85.9616   16.3240 O.3     1  UNL1       -0.5006
      6 C          63.4484   88.5464   16.3518 C.ar    1  UNL1        0.2973
      7 O          63.1244   88.5634   17.8163 O.2     1  UNL1       -0.2636
      8 N          63.7410   89.8302   15.6334 N.ar    1  UNL1       -0.2783
      9 C          63.7096   91.1312   16.3796 C.3     1  UNL1        0.1349
     10 H          63.2068   85.1490   15.8579 H       1  UNL1        0.2924
     11 C          63.8352   85.9276   13.3950 C.2     1  UNL1        0.2671
     12 O          63.0354   85.7654   12.1365 O.2     1  UNL1       -0.2684
     13 N          64.6665   84.7890   13.9075 N.am    1  UNL1       -0.2956
     14 H          65.1914   84.8955   14.7335 H       1  UNL1        0.1501
     15 C          64.6979   83.4881   13.1614 C.3     1  UNL1        0.1166
     16 C          63.6018   82.4834   13.3591 C.ar    1  UNL1       -0.0024
     17 C          63.6120   81.1998   12.5833 C.ar    1  UNL1       -0.0003
     18 C          62.5159   80.1951   12.7810 C.ar    1  UNL1        0.0294
     19 C          61.4095   80.4740   13.7547 C.ar    1  UNL1        0.1401
     20 F          60.3134   79.4693   13.9524 F       1  UNL1       -0.2042
     21 C          61.3992   81.7578   14.5306 C.ar    1  UNL1        0.0294
     22 C          62.4954   82.7625   14.3329 C.ar    1  UNL1       -0.0003
     23 C          64.3577   91.0972   13.4506 C.3     1  UNL1        0.1078
     24 C          63.2428   90.8128   12.4883 C.3     1  UNL1        0.0274
     25 C          65.4726   91.3815   14.4129 C.3     1  UNL1        0.0274
     26 C          66.0216   92.6361   12.1806 C.2     1  UNL1        0.3015
     27 O          67.1004   91.6073   12.3472 O.2     1  UNL1       -0.2649
     28 N          64.6503   92.3810   12.7323 N.am    1  UNL1       -0.2938
     29 H          63.9423   93.0563   12.6229 H       1  UNL1        0.1502
     30 C          67.4685   96.0914    8.4593 C.3     1  UNL1        0.0967
     31 C          66.9792   95.5083    9.7517 C.ar    1  UNL1        0.2271
     32 N          66.5495   96.2833   10.9620 N.ar    1  UNL1       -0.1112
     33 N          66.1384   95.3017   12.0192 N.ar    1  UNL1       -0.1024
     34 C          66.3142   93.9201   11.4622 C.ar    1  UNL1        0.3038
     35 O          66.8338   94.0477   10.0609 O.2     1  UNL1       -0.4162
@<TRIPOS>BOND
     1    30    31    1
     2    31    32   ar
     3    32    33   ar
     4    33    34   ar
     5    34    26    1
     6    26    27    2
     7    26    28   am
     8    28    23    1
     9    23    24    1
    10    23    25    1
    11    23     1    1
    12     1     2   ar
    13     2     3   ar
    14     3    11    1
    15    11    12    2
    16    11    13   am
    17    13    15    1
    18    15    16    1
    19    16    17   ar
    20    17    18   ar
    21    18    19   ar
    22    19    20    1
    23    19    21   ar
    24    21    22   ar
    25     3     4   ar
    26     4     5    1
    27     4     6   ar
    28     6     7    2
    29     6     8   ar
    30     8     9    1
    31    34    35   ar
    32    35    31   ar
    33     8     1   ar
    34    22    16   ar
    35    28    29    1
    36    13    14    1
    37     5    10    1
@<TRIPOS>MOLECULE
*****
 35 37 0 0 0
SMALL
GASTEIGER

@<TRIPOS>ATOM
      1 C          63.4405   85.8104   14.6012 C.ar    1  UNL1        0.1389
      2 N          63.8158   87.2150   14.2322 N.ar    1  UNL1       -0.2229
      3 C          63.7244   88.3088   15.2545 C.ar    1  UNL1        0.1740
      4 C          63.2577   87.9980   16.6458 C.ar    1  UNL1        0.2130
      5 O          63.1663   89.0919   17.6682 O.3     1  UNL1       -0.5006
      6 C          62.8824   86.5934   17.0148 C.ar    1  UNL1        0.2973
      7 O          62.4158   86.2826   18.4060 O.2     1  UNL1       -0.2636
      8 N          62.9738   85.4996   15.9924 N.ar    1  UNL1       -0.2783
      9 C          62.5985   84.0949   16.3613 C.3     1  UNL1        0.1349
     10 H          63.4008   89.9693   17.4377 H       1  UNL1        0.2924
     11 C          64.0997   89.7135   14.8856 C.2     1  UNL1        0.2671
     12 O          63.7549   90.8478   15.8045 O.2     1  UNL1       -0.2684
     13 N          64.8197   89.9838   13.5978 N.am    1  UNL1       -0.2956
     14 H          65.0460   89.2393   12.9947 H       1  UNL1        0.1501
     15 C          65.1950   91.3884   13.2289 C.3     1  UNL1        0.1166
     16 C          66.2600   92.1079   14.0023 C.ar    1  UNL1       -0.0024
     17 C          66.3867   93.5987   13.8954 C.ar    1  UNL1       -0.0003
     18 C          67.4517   94.3182   14.6688 C.ar    1  UNL1        0.0294
     19 C          68.3899   93.5470   15.5490 C.ar    1  UNL1        0.1401
     20 F          69.4549   94.2665   16.3224 F       1  UNL1       -0.2042
     21 C          68.2632   92.0561   15.6559 C.ar    1  UNL1        0.0294
     22 C          67.1983   91.3366   14.8825 C.ar    1  UNL1       -0.0003
     23 C          63.5319   84.7165   13.5788 C.3     1  UNL1        0.1078
     24 C          62.3064   85.2503   12.8982 C.3     1  UNL1        0.0274
     25 C          64.7573   84.1826   14.2595 C.3     1  UNL1        0.0274
     26 C          62.8387   82.3573   12.7398 C.2     1  UNL1        0.3015
     27 O          61.9630   82.1858   13.9454 O.2     1  UNL1       -0.2649
     28 N          63.6232   83.6227   12.5565 N.am    1  UNL1       -0.2938
     29 H          64.1980   83.7352   11.7652 H       1  UNL1        0.1502
     30 C          62.7244   77.6003   10.4512 C.3     1  UNL1        0.0967
     31 C          62.8776   79.0769   10.6654 C.ar    1  UNL1        0.2271
     32 N          63.2638   80.0838    9.6228 N.ar    1  UNL1       -0.1112
     33 N          63.2963   81.4352   10.2730 N.ar    1  UNL1       -0.1024
     34 C          62.9301   81.2635   11.7174 C.ar    1  UNL1        0.3038
     35 O          62.6713   79.8061   11.9600 O.2     1  UNL1       -0.4162
@<TRIPOS>BOND
     1    30    31    1
     2    31    32   ar
     3    32    33   ar
     4    33    34   ar
     5    34    26    1
     6    26    27    2
     7    26    28   am
     8    28    23    1
     9    23    24    1
    10    23    25    1
    11    23     1    1
    12     1     2   ar
    13     2     3   ar
    14     3    11    1
    15    11    12    2
    16    11    13   am
    17    13    15    1
    18    15    16    1
    19    16    17   ar
    20    17    18   ar
    21    18    19   ar
    22    19    20    1
    23    19    21   ar
    24    21    22   ar
    25     3     4   ar
    26     4     5    1
    27     4     6   ar
    28     6     7    2
    29     6     8   ar
    30     8     9    1
    31    34    35   ar
    32    35    31   ar
    33     8     1   ar
    34    22    16   ar
    35    28    29    1
    36    13    14    1
    37     5    10    1
@<TRIPOS>MOLECULE
*****
 35 37 0 0 0
SMALL
GASTEIGER

@<TRIPOS>ATOM
      1 C          64.2328   89.1331   14.6476 C.ar    1  UNL1        0.1389
      2 N          64.6589   87.7452   14.2709 N.ar    1  UNL1       -0.2229
      3 C          64.3513   86.5933   15.1811 C.ar    1  UNL1        0.1740
      4 C          63.6176   86.8293   16.4679 C.ar    1  UNL1        0.2130
      5 O          63.3101   85.6773   17.3781 O.3     1  UNL1       -0.5006
      6 C          63.1916   88.2173   16.8446 C.ar    1  UNL1        0.2973
      7 O          62.4579   88.4533   18.1315 O.2     1  UNL1       -0.2636
      8 N          63.4991   89.3692   15.9345 N.ar    1  UNL1       -0.2783
      9 C          63.0730   90.7572   16.3112 C.3     1  UNL1        0.1349
     10 H          63.5763   84.8102   17.1428 H       1  UNL1        0.2924
     11 C          64.7774   85.2052   14.8044 C.2     1  UNL1        0.2671
     12 O          66.1294   84.9745   14.1971 O.2     1  UNL1       -0.2684
     13 N          63.8514   84.0479   15.0350 N.am    1  UNL1       -0.2956
     14 H          62.9641   84.1993   15.4336 H       1  UNL1        0.1501
     15 C          64.2775   82.6599   14.6583 C.3     1  UNL1        0.1166
     16 C          63.8644   82.0810   13.3376 C.ar    1  UNL1       -0.0024
     17 C          63.0871   80.7990   13.2909 C.ar    1  UNL1       -0.0003
     18 C          62.6741   80.2201   11.9702 C.ar    1  UNL1        0.0294
     19 C          63.0383   80.9231   10.6962 C.ar    1  UNL1        0.1401
     20 F          62.6253   80.3442    9.3755 F       1  UNL1       -0.2042
     21 C          63.8157   82.2052   10.7430 C.ar    1  UNL1        0.0294
     22 C          64.2287   82.7841   12.0637 C.ar    1  UNL1       -0.0003
     23 C          64.5403   90.2851   13.7374 C.3     1  UNL1        0.1078
     24 C          63.5642   89.7510   12.7316 C.3     1  UNL1        0.0274
     25 C          65.5165   90.8193   14.7433 C.3     1  UNL1        0.0274
     26 C          66.2290   92.0215   12.7974 C.2     1  UNL1        0.3015
     27 O          67.3026   91.4539   13.6778 O.2     1  UNL1       -0.2649
     28 N          64.8478   91.4371   12.8273 N.am    1  UNL1       -0.2938
     29 H          64.1431   91.8096   12.2494 H       1  UNL1        0.1502
     30 C          66.3372   96.8557   10.6764 C.3     1  UNL1        0.0967
     31 C          66.5862   95.3955   10.9123 C.ar    1  UNL1        0.2271
     32 N          67.4330   94.4967   10.0608 N.ar    1  UNL1       -0.1112
     33 N          67.4023   93.1233   10.6634 N.ar    1  UNL1       -0.1024
     34 C          66.5364   93.1735   11.8872 C.ar    1  UNL1        0.3038
     35 O          66.0321   94.5777   12.0411 O.2     1  UNL1       -0.4162
@<TRIPOS>BOND
     1    30    31    1
     2    31    32   ar
     3    32    33   ar
     4    33    34   ar
     5    34    26    1
     6    26    27    2
     7    26    28   am
     8    28    23    1
     9    23    24    1
    10    23    25    1
    11    23     1    1
    12     1     2   ar
    13     2     3   ar
    14     3    11    1
    15    11    12    2
    16    11    13   am
    17    13    15    1
    18    15    16    1
    19    16    17   ar
    20    17    18   ar
    21    18    19   ar
    22    19    20    1
    23    19    21   ar
    24    21    22   ar
    25     3     4   ar
    26     4     5    1
    27     4     6   ar
    28     6     7    2
    29     6     8   ar
    30     8     9    1
    31    34    35   ar
    32    35    31   ar
    33     8     1   ar
    34    22    16   ar
    35    28    29    1
    36    13    14    1
    37     5    10    1
@<TRIPOS>MOLECULE
*****
 35 37 0 0 0
SMALL
GASTEIGER

@<TRIPOS>ATOM
      1 C          62.6076   88.7071   11.9226 C.ar    1  UNL1        0.1389
      2 N          62.6776   87.2277   12.1598 N.ar    1  UNL1       -0.2229
      3 C          63.4994   86.6878   13.2925 C.ar    1  UNL1        0.1740
      4 C          64.2511   87.6274   14.1881 C.ar    1  UNL1        0.2130
      5 O          65.0730   87.0875   15.3209 O.3     1  UNL1       -0.5006
      6 C          64.1811   89.1069   13.9510 C.ar    1  UNL1        0.2973
      7 O          64.9328   90.0465   14.8466 O.2     1  UNL1       -0.2636
      8 N          63.3593   89.6467   12.8182 N.ar    1  UNL1       -0.2783
      9 C          63.2892   91.1262   12.5810 C.3     1  UNL1        0.1349
     10 H          65.1167   86.1633   15.4691 H       1  UNL1        0.2924
     11 C          63.5695   85.2083   13.5298 C.2     1  UNL1        0.2671
     12 O          64.9004   84.5176   13.5713 O.2     1  UNL1       -0.2684
     13 N          62.3087   84.4196   13.7254 N.am    1  UNL1       -0.2956
     14 H          61.4352   84.8729   13.6981 H       1  UNL1        0.1501
     15 C          62.3788   82.9401   13.9626 C.3     1  UNL1        0.1166
     16 C          62.5895   82.0047   12.8091 C.ar    1  UNL1       -0.0024
     17 C          63.0100   82.5434   11.4738 C.ar    1  UNL1       -0.0003
     18 C          63.2207   81.6080   10.3203 C.ar    1  UNL1        0.0294
     19 C          63.0111   80.1340   10.5020 C.ar    1  UNL1        0.1401
     20 F          63.2218   79.1986    9.3485 F       1  UNL1       -0.2042
     21 C          62.5906   79.5952   11.8374 C.ar    1  UNL1        0.0294
     22 C          62.3798   80.5306   12.9909 C.ar    1  UNL1       -0.0003
     23 C          61.7858   89.2471   10.7898 C.3     1  UNL1        0.1078
     24 C          60.5342   88.9912   11.5759 C.3     1  UNL1        0.0274
     25 C          63.0373   89.5029   10.0037 C.3     1  UNL1        0.0274
     26 C          60.4631   88.8630    8.5869 C.2     1  UNL1        0.3015
     27 O          60.7842   87.3991    8.6493 O.2     1  UNL1       -0.2649
     28 N          60.9639   89.7870    9.6571 N.am    1  UNL1       -0.2938
     29 H          60.7532   90.7478    9.6161 H       1  UNL1        0.1502
     30 C          58.8812   91.7596    4.4653 C.3     1  UNL1        0.0967
     31 C          58.9142   90.7344    5.5596 C.ar    1  UNL1        0.2271
     32 N          57.8390   89.7332    5.8624 N.ar    1  UNL1       -0.1112
     33 N          58.2884   88.9102    7.0334 N.ar    1  UNL1       -0.1024
     34 C          59.6413   89.4029    7.4541 C.ar    1  UNL1        0.3038
     35 O          60.0280   90.5303    6.5433 O.2     1  UNL1       -0.4162
@<TRIPOS>BOND
     1    30    31    1
     2    31    32   ar
     3    32    33   ar
     4    33    34   ar
     5    34    26    1
     6    26    27    2
     7    26    28   am
     8    28    23    1
     9    23    24    1
    10    23    25    1
    11    23     1    1
    12     1     2   ar
    13     2     3   ar
    14     3    11    1
    15    11    12    2
    16    11    13   am
    17    13    15    1
    18    15    16    1
    19    16    17   ar
    20    17    18   ar
    21    18    19   ar
    22    19    20    1
    23    19    21   ar
    24    21    22   ar
    25     3     4   ar
    26     4     5    1
    27     4     6   ar
    28     6     7    2
    29     6     8   ar
    30     8     9    1
    31    34    35   ar
    32    35    31   ar
    33     8     1   ar
    34    22    16   ar
    35    28    29    1
    36    13    14    1
    37     5    10    1
@<TRIPOS>MOLECULE
*****
 35 37 0 0 0
SMALL
GASTEIGER

@<TRIPOS>ATOM
      1 C          62.2355   88.5936   11.3410 C.ar    1  UNL1        0.1389
      2 N          62.4000   87.1028   11.3184 N.ar    1  UNL1       -0.2229
      3 C          63.1596   86.4155   12.4141 C.ar    1  UNL1        0.1740
      4 C          63.7546   87.2189   13.5323 C.ar    1  UNL1        0.2130
      5 O          64.5143   86.5315   14.6280 O.3     1  UNL1       -0.5006
      6 C          63.5901   88.7096   13.5549 C.ar    1  UNL1        0.2973
      7 O          64.1852   89.5130   14.6731 O.2     1  UNL1       -0.2636
      8 N          62.8305   89.3970   12.4592 N.ar    1  UNL1       -0.2783
      9 C          62.6660   90.8878   12.4817 C.3     1  UNL1        0.1349
     10 H          64.6170   85.6002   14.6139 H       1  UNL1        0.2924
     11 C          63.3241   84.9247   12.3915 C.2     1  UNL1        0.2671
     12 O          62.5337   84.0974   11.4216 O.2     1  UNL1       -0.2684
     13 N          64.2791   84.2611   13.3390 N.am    1  UNL1       -0.2956
     14 H          64.7979   84.8041   13.9756 H       1  UNL1        0.1501
     15 C          64.4437   82.7704   13.3165 C.3     1  UNL1        0.1166
     16 C          63.2540   81.8812   13.5260 C.ar    1  UNL1       -0.0024
     17 C          63.2374   80.5002   12.9408 C.ar    1  UNL1       -0.0003
     18 C          62.0477   79.6111   13.1503 C.ar    1  UNL1        0.0294
     19 C          60.8745   80.1029   13.9450 C.ar    1  UNL1        0.1401
     20 F          59.6847   79.2138   14.1545 F       1  UNL1       -0.2042
     21 C          60.8909   81.4840   14.5302 C.ar    1  UNL1        0.0294
     22 C          62.0807   82.3732   14.3208 C.ar    1  UNL1       -0.0003
     23 C          61.4758   89.2810   10.2453 C.3     1  UNL1        0.1078
     24 C          60.1839   88.8178   10.8504 C.3     1  UNL1        0.0274
     25 C          62.7678   89.7442    9.6401 C.3     1  UNL1        0.0274
     26 C          60.2362   89.1849    7.9640 C.2     1  UNL1        0.3015
     27 O          60.5159   87.7140    7.8740 O.2     1  UNL1       -0.2649
     28 N          60.7162   89.9684    9.1497 N.am    1  UNL1       -0.2938
     29 H          60.5326   90.9338    9.2087 H       1  UNL1        0.1502
     30 C          56.2862   91.0532    4.9998 C.3     1  UNL1        0.0967
     31 C          57.6609   90.7311    5.5059 C.ar    1  UNL1        0.2271
     32 N          58.9544   91.1293    4.8589 N.ar    1  UNL1       -0.1112
     33 N          60.0766   90.5985    5.7010 N.ar    1  UNL1       -0.1024
     34 C          59.4766   89.8723    6.8684 C.ar    1  UNL1        0.3038
     35 O          57.9837   89.9543    6.7478 O.2     1  UNL1       -0.4162
@<TRIPOS>BOND
     1    30    31    1
     2    31    32   ar
     3    32    33   ar
     4    33    34   ar
     5    34    26    1
     6    26    27    2
     7    26    28   am
     8    28    23    1
     9    23    24    1
    10    23    25    1
    11    23     1    1
    12     1     2   ar
    13     2     3   ar
    14     3    11    1
    15    11    12    2
    16    11    13   am
    17    13    15    1
    18    15    16    1
    19    16    17   ar
    20    17    18   ar
    21    18    19   ar
    22    19    20    1
    23    19    21   ar
    24    21    22   ar
    25     3     4   ar
    26     4     5    1
    27     4     6   ar
    28     6     7    2
    29     6     8   ar
    30     8     9    1
    31    34    35   ar
    32    35    31   ar
    33     8     1   ar
    34    22    16   ar
    35    28    29    1
    36    13    14    1
    37     5    10    1
