@<TRIPOS>MOLECULE
*****
 20 21 0 0 0
SMALL
GASTEIGER

@<TRIPOS>ATOM
      1 C          62.0031   86.7969   10.9070 C.3     1  UNL1        0.1594
      2 C          59.4408   87.1941    9.3980 C.3     1  UNL1        0.0308
      3 C          60.5641   86.4175    8.7774 C.ar    1  UNL1       -0.0232
      4 C          60.4063   85.8395    7.4023 C.ar    1  UNL1       -0.0045
      5 C          61.5295   85.0629    6.7816 C.ar    1  UNL1       -0.0003
      6 C          62.8106   84.8643    7.5361 C.ar    1  UNL1       -0.0003
      7 C          62.9685   85.4423    8.9112 C.ar    1  UNL1       -0.0019
      8 C          61.8452   86.2189    9.5318 C.ar    1  UNL1        0.0048
      9 C          62.4771   88.2098   11.0768 C.ar    1  UNL1        0.0087
     10 C          62.2982   89.1998    9.9641 C.ar    1  UNL1       -0.0016
     11 C          62.7721   90.6127   10.1339 C.ar    1  UNL1       -0.0002
     12 C          63.4249   91.0358   11.4164 C.ar    1  UNL1       -0.0000
     13 C          63.6038   90.0460   12.5291 C.ar    1  UNL1       -0.0002
     14 C          63.1298   88.6329   12.3593 C.ar    1  UNL1       -0.0016
     15 O          61.6871   85.9618   12.1123 O.3     1  UNL1       -0.3460
     16 C          62.6254   84.8710   12.5360 C.3     1  UNL1        0.1602
     17 C          63.6638   85.1400   13.5845 C.3     1  UNL1        0.1047
     18 N          63.4137   84.7387   15.0081 N.3     1  UNL1       -0.2682
     19 C          62.7275   83.4398   15.3117 C.3     1  UNL1        0.0897
     20 C          63.8497   85.6362   16.1280 C.3     1  UNL1        0.0897
@<TRIPOS>BOND
     1     2     3    1
     2     3     4   ar
     3     4     5   ar
     4     5     6   ar
     5     6     7   ar
     6     7     8   ar
     7     8     1    1
     8     1    15    1
     9    15    16    1
    10    16    17    1
    11    17    18    1
    12    18    19    1
    13    18    20    1
    14     1     9    1
    15     9    10   ar
    16    10    11   ar
    17    11    12   ar
    18    12    13   ar
    19    13    14   ar
    20     8     3   ar
    21    14     9   ar
@<TRIPOS>MOLECULE
*****
 20 21 0 0 0
SMALL
GASTEIGER

@<TRIPOS>ATOM
      1 C          62.1387   86.7357   10.9627 C.3     1  UNL1        0.1594
      2 C          59.5390   87.2264    9.5481 C.3     1  UNL1        0.0308
      3 C          60.6205   86.4333    8.8761 C.ar    1  UNL1       -0.0232
      4 C          60.4021   85.8856    7.4969 C.ar    1  UNL1       -0.0045
      5 C          61.4836   85.0925    6.8250 C.ar    1  UNL1       -0.0003
      6 C          62.7834   84.8472    7.5322 C.ar    1  UNL1       -0.0003
      7 C          63.0017   85.3949    8.9114 C.ar    1  UNL1       -0.0019
      8 C          61.9203   86.1880    9.5834 C.ar    1  UNL1        0.0048
      9 C          62.5702   88.1608   11.1441 C.ar    1  UNL1        0.0087
     10 C          63.1880   88.5983   12.4391 C.ar    1  UNL1       -0.0016
     11 C          63.6195   90.0234   12.6205 C.ar    1  UNL1       -0.0002
     12 C          63.4333   91.0110   11.5069 C.ar    1  UNL1       -0.0000
     13 C          62.8155   90.5735   10.2120 C.ar    1  UNL1       -0.0002
     14 C          62.3840   89.1484   10.0305 C.ar    1  UNL1       -0.0016
     15 O          61.9256   85.8583   12.1605 O.3     1  UNL1       -0.3460
     16 C          63.0209   84.9453   12.6258 C.3     1  UNL1        0.1602
     17 C          62.7677   83.4719   12.7487 C.3     1  UNL1        0.1047
     18 N          62.3979   82.8828   14.0777 N.3     1  UNL1       -0.2682
     19 C          61.7623   81.5258   14.1459 C.3     1  UNL1        0.0897
     20 C          62.6637   83.6507   15.3386 C.3     1  UNL1        0.0897
@<TRIPOS>BOND
     1     2     3    1
     2     3     4   ar
     3     4     5   ar
     4     5     6   ar
     5     6     7   ar
     6     7     8   ar
     7     8     1    1
     8     1    15    1
     9    15    16    1
    10    16    17    1
    11    17    18    1
    12    18    19    1
    13    18    20    1
    14     1     9    1
    15     9    10   ar
    16    10    11   ar
    17    11    12   ar
    18    12    13   ar
    19    13    14   ar
    20     8     3   ar
    21    14     9   ar
@<TRIPOS>MOLECULE
*****
 20 21 0 0 0
SMALL
GASTEIGER

@<TRIPOS>ATOM
      1 C          63.4004   83.9634   12.6127 C.3     1  UNL1        0.1594
      2 C          64.4102   83.3348    9.8586 C.3     1  UNL1        0.0308
      3 C          63.3842   84.4115   10.0536 C.ar    1  UNL1       -0.0232
      4 C          62.8631   85.1739    8.8716 C.ar    1  UNL1       -0.0045
      5 C          61.8371   86.2506    9.0666 C.ar    1  UNL1       -0.0003
      6 C          61.3322   86.5649   10.4437 C.ar    1  UNL1       -0.0003
      7 C          61.8533   85.8025   11.6257 C.ar    1  UNL1       -0.0019
      8 C          62.8793   84.7258   11.4306 C.ar    1  UNL1        0.0048
      9 C          62.8317   82.6160   12.9461 C.ar    1  UNL1        0.0087
     10 C          61.8336   82.4772   14.0572 C.ar    1  UNL1       -0.0016
     11 C          61.2649   81.1299   14.3906 C.ar    1  UNL1       -0.0002
     12 C          61.6944   79.9212   13.6129 C.ar    1  UNL1       -0.0000
     13 C          62.6924   80.0600   12.5019 C.ar    1  UNL1       -0.0002
     14 C          63.2612   81.4074   12.1684 C.ar    1  UNL1       -0.0016
     15 O          64.4901   84.5484   13.4613 O.3     1  UNL1       -0.3460
     16 C          64.1797   85.0484   14.8410 C.3     1  UNL1        0.1602
     17 C          64.1232   86.5232   15.1092 C.3     1  UNL1        0.1047
     18 N          63.3492   87.0426   16.2845 N.3     1  UNL1       -0.2682
     19 C          63.2500   88.5202   16.5234 C.3     1  UNL1        0.0897
     20 C          62.6745   86.0846   17.2209 C.3     1  UNL1        0.0897
@<TRIPOS>BOND
     1     2     3    1
     2     3     4   ar
     3     4     5   ar
     4     5     6   ar
     5     6     7   ar
     6     7     8   ar
     7     8     1    1
     8     1    15    1
     9    15    16    1
    10    16    17    1
    11    17    18    1
    12    18    19    1
    13    18    20    1
    14     1     9    1
    15     9    10   ar
    16    10    11   ar
    17    11    12   ar
    18    12    13   ar
    19    13    14   ar
    20     8     3   ar
    21    14     9   ar
@<TRIPOS>MOLECULE
*****
 20 21 0 0 0
SMALL
GASTEIGER

@<TRIPOS>ATOM
      1 C          61.7724   87.1035   11.0775 C.3     1  UNL1        0.1594
      2 C          63.1358   85.4250    8.9981 C.3     1  UNL1        0.0308
      3 C          61.7557   85.9561    8.7465 C.ar    1  UNL1       -0.0232
      4 C          61.0574   85.6480    7.4553 C.ar    1  UNL1       -0.0045
      5 C          59.6773   86.1791    7.2037 C.ar    1  UNL1       -0.0003
      6 C          58.9956   87.0184    8.2434 C.ar    1  UNL1       -0.0003
      7 C          59.6940   87.3265    9.5346 C.ar    1  UNL1       -0.0019
      8 C          61.0740   86.7953    9.7861 C.ar    1  UNL1        0.0048
      9 C          62.4417   88.4320   11.2697 C.ar    1  UNL1        0.0087
     10 C          63.1504   88.7357   12.5564 C.ar    1  UNL1       -0.0016
     11 C          63.8197   90.0642   12.7486 C.ar    1  UNL1       -0.0002
     12 C          63.7804   91.0892   11.6542 C.ar    1  UNL1       -0.0000
     13 C          63.0717   90.7856   10.3675 C.ar    1  UNL1       -0.0002
     14 C          62.4024   89.4570   10.1752 C.ar    1  UNL1       -0.0016
     15 O          61.8014   86.0831   12.1765 O.3     1  UNL1       -0.3460
     16 C          63.0239   85.2391   12.3842 C.3     1  UNL1        0.1602
     17 C          62.8839   83.7714   12.6605 C.3     1  UNL1        0.1047
     18 N          62.5004   83.2996   14.0318 N.3     1  UNL1       -0.2682
     19 C          62.6527   84.2156   15.2099 C.3     1  UNL1        0.0897
     20 C          61.9648   81.9120   14.2251 C.3     1  UNL1        0.0897
@<TRIPOS>BOND
     1     2     3    1
     2     3     4   ar
     3     4     5   ar
     4     5     6   ar
     5     6     7   ar
     6     7     8   ar
     7     8     1    1
     8     1    15    1
     9    15    16    1
    10    16    17    1
    11    17    18    1
    12    18    19    1
    13    18    20    1
    14     1     9    1
    15     9    10   ar
    16    10    11   ar
    17    11    12   ar
    18    12    13   ar
    19    13    14   ar
    20     8     3   ar
    21    14     9   ar
@<TRIPOS>MOLECULE
*****
 20 21 0 0 0
SMALL
GASTEIGER

@<TRIPOS>ATOM
      1 C          63.3488   84.2624   12.4737 C.3     1  UNL1        0.1594
      2 C          64.1078   81.9441   10.7274 C.3     1  UNL1        0.0308
      3 C          63.2358   81.7248   11.9281 C.ar    1  UNL1       -0.0232
      4 C          62.7433   80.3464   12.2556 C.ar    1  UNL1       -0.0045
      5 C          61.8713   80.1270   13.4562 C.ar    1  UNL1       -0.0003
      6 C          61.4918   81.2861   14.3293 C.ar    1  UNL1       -0.0003
      7 C          61.9843   82.6645   14.0018 C.ar    1  UNL1       -0.0019
      8 C          62.8563   82.8839   12.8012 C.ar    1  UNL1        0.0048
      9 C          62.7275   85.0327   11.3466 C.ar    1  UNL1        0.0087
     10 C          63.2165   84.8332    9.9426 C.ar    1  UNL1       -0.0016
     11 C          62.5952   85.6035    8.8154 C.ar    1  UNL1       -0.0002
     12 C          61.4849   86.5734    9.0921 C.ar    1  UNL1       -0.0000
     13 C          60.9959   86.7729   10.4960 C.ar    1  UNL1       -0.0002
     14 C          61.6172   86.0026   11.6233 C.ar    1  UNL1       -0.0016
     15 O          64.4626   84.8706   13.2735 O.3     1  UNL1       -0.3460
     16 C          64.2251   85.2857   14.6952 C.3     1  UNL1        0.1602
     17 C          64.0964   86.7398   15.0404 C.3     1  UNL1        0.1047
     18 N          63.3561   87.1542   16.2775 N.3     1  UNL1       -0.2682
     19 C          63.1932   88.6096   16.6019 C.3     1  UNL1        0.0897
     20 C          62.7786   86.1132   17.1901 C.3     1  UNL1        0.0897
@<TRIPOS>BOND
     1     2     3    1
     2     3     4   ar
     3     4     5   ar
     4     5     6   ar
     5     6     7   ar
     6     7     8   ar
     7     8     1    1
     8     1    15    1
     9    15    16    1
    10    16    17    1
    11    17    18    1
    12    18    19    1
    13    18    20    1
    14     1     9    1
    15     9    10   ar
    16    10    11   ar
    17    11    12   ar
    18    12    13   ar
    19    13    14   ar
    20     8     3   ar
    21    14     9   ar
@<TRIPOS>MOLECULE
*****
 20 21 0 0 0
SMALL
GASTEIGER

@<TRIPOS>ATOM
      1 C          62.2155   86.7735   10.9808 C.3     1  UNL1        0.1594
      2 C          63.7097   87.6911   13.4150 C.3     1  UNL1        0.0308
      3 C          63.3003   88.6839   12.3677 C.ar    1  UNL1       -0.0232
      4 C          63.6381   90.1354   12.5376 C.ar    1  UNL1       -0.0045
      5 C          63.2287   91.1282   11.4903 C.ar    1  UNL1       -0.0003
      6 C          62.4816   90.6695   10.2732 C.ar    1  UNL1       -0.0003
      7 C          62.1439   89.2179   10.1034 C.ar    1  UNL1       -0.0019
      8 C          62.5533   88.2251   11.1506 C.ar    1  UNL1        0.0048
      9 C          61.9222   86.2265    9.6152 C.ar    1  UNL1        0.0087
     10 C          63.0048   85.5449    8.8319 C.ar    1  UNL1       -0.0016
     11 C          62.7116   84.9979    7.4664 C.ar    1  UNL1       -0.0002
     12 C          61.3358   85.1325    6.8841 C.ar    1  UNL1       -0.0000
     13 C          60.2532   85.8140    7.6673 C.ar    1  UNL1       -0.0002
     14 C          60.5464   86.3610    9.0329 C.ar    1  UNL1       -0.0016
     15 O          62.1709   85.8689   12.1765 O.3     1  UNL1       -0.3460
     16 C          62.4555   84.4045   12.0202 C.3     1  UNL1        0.1602
     17 C          63.7688   83.8426   12.4779 C.3     1  UNL1        0.1047
     18 N          63.8105   82.8627   13.6129 N.3     1  UNL1       -0.2682
     19 C          63.8880   83.3561   15.0273 C.3     1  UNL1        0.0897
     20 C          63.7748   81.3894   13.3334 C.3     1  UNL1        0.0897
@<TRIPOS>BOND
     1     2     3    1
     2     3     4   ar
     3     4     5   ar
     4     5     6   ar
     5     6     7   ar
     6     7     8   ar
     7     8     1    1
     8     1    15    1
     9    15    16    1
    10    16    17    1
    11    17    18    1
    12    18    19    1
    13    18    20    1
    14     1     9    1
    15     9    10   ar
    16    10    11   ar
    17    11    12   ar
    18    12    13   ar
    19    13    14   ar
    20     8     3   ar
    21    14     9   ar
@<TRIPOS>MOLECULE
*****
 20 21 0 0 0
SMALL
GASTEIGER

@<TRIPOS>ATOM
      1 C          62.2198   86.7144   11.0387 C.3     1  UNL1        0.1594
      2 C          63.7340   87.5955   13.4740 C.3     1  UNL1        0.0308
      3 C          63.3062   88.6054   12.4507 C.ar    1  UNL1       -0.0232
      4 C          63.6355   90.0558   12.6451 C.ar    1  UNL1       -0.0045
      5 C          63.2077   91.0657   11.6218 C.ar    1  UNL1       -0.0003
      6 C          62.4506   90.6252   10.4041 C.ar    1  UNL1       -0.0003
      7 C          62.1213   89.1747   10.2098 C.ar    1  UNL1       -0.0019
      8 C          62.5491   88.1649   11.2331 C.ar    1  UNL1        0.0048
      9 C          61.9305   86.1887    9.6640 C.ar    1  UNL1        0.0087
     10 C          60.5714   86.3798    9.0585 C.ar    1  UNL1       -0.0016
     11 C          60.2822   85.8541    7.6838 C.ar    1  UNL1       -0.0002
     12 C          61.3519   85.1373    6.9145 C.ar    1  UNL1       -0.0000
     13 C          62.7109   84.9462    7.5198 C.ar    1  UNL1       -0.0002
     14 C          63.0002   85.4719    8.8946 C.ar    1  UNL1       -0.0016
     15 O          62.1798   85.7897   12.2191 O.3     1  UNL1       -0.3460
     16 C          63.1544   84.6535   12.3151 C.3     1  UNL1        0.1602
     17 C          62.6595   83.2600   12.5666 C.3     1  UNL1        0.1047
     18 N          62.3318   82.8211   13.9631 N.3     1  UNL1       -0.2682
     19 C          61.6822   81.4896   14.1977 C.3     1  UNL1        0.0897
     20 C          62.6538   83.7137   15.1248 C.3     1  UNL1        0.0897
@<TRIPOS>BOND
     1     2     3    1
     2     3     4   ar
     3     4     5   ar
     4     5     6   ar
     5     6     7   ar
     6     7     8   ar
     7     8     1    1
     8     1    15    1
     9    15    16    1
    10    16    17    1
    11    17    18    1
    12    18    19    1
    13    18    20    1
    14     1     9    1
    15     9    10   ar
    16    10    11   ar
    17    11    12   ar
    18    12    13   ar
    19    13    14   ar
    20     8     3   ar
    21    14     9   ar
@<TRIPOS>MOLECULE
*****
 20 21 0 0 0
SMALL
GASTEIGER

@<TRIPOS>ATOM
      1 C          64.4659   89.3902   14.2150 C.3     1  UNL1        0.1594
      2 C          62.9153   89.9350   16.7248 C.3     1  UNL1        0.0308
      3 C          63.2935   88.5282   16.3673 C.ar    1  UNL1       -0.0232
      4 C          62.8964   87.3937   17.2647 C.ar    1  UNL1       -0.0045
      5 C          63.2746   85.9869   16.9072 C.ar    1  UNL1       -0.0003
      6 C          64.0499   85.7145   15.6523 C.ar    1  UNL1       -0.0003
      7 C          64.4469   86.8489   14.7550 C.ar    1  UNL1       -0.0019
      8 C          64.0688   88.2558   15.1124 C.ar    1  UNL1        0.0048
      9 C          63.7657   89.5896   12.9035 C.ar    1  UNL1        0.0087
     10 C          63.7991   90.9303   12.2317 C.ar    1  UNL1       -0.0016
     11 C          63.0989   91.1297   10.9202 C.ar    1  UNL1       -0.0002
     12 C          62.3653   89.9883   10.2806 C.ar    1  UNL1       -0.0000
     13 C          62.3319   88.6476   10.9524 C.ar    1  UNL1       -0.0002
     14 C          63.0321   88.4482   12.2639 C.ar    1  UNL1       -0.0016
     15 O          65.5632   90.3253   14.6291 O.3     1  UNL1       -0.3460
     16 C          65.2283   91.6243   15.3002 C.3     1  UNL1        0.1602
     17 C          66.1589   92.7942   15.1766 C.3     1  UNL1        0.1047
     18 N          66.9810   92.9707   13.9343 N.3     1  UNL1       -0.2682
     19 C          66.4408   93.7685   12.7846 C.3     1  UNL1        0.0897
     20 C          68.3430   92.3493   13.8417 C.3     1  UNL1        0.0897
@<TRIPOS>BOND
     1     2     3    1
     2     3     4   ar
     3     4     5   ar
     4     5     6   ar
     5     6     7   ar
     6     7     8   ar
     7     8     1    1
     8     1    15    1
     9    15    16    1
    10    16    17    1
    11    17    18    1
    12    18    19    1
    13    18    20    1
    14     1     9    1
    15     9    10   ar
    16    10    11   ar
    17    11    12   ar
    18    12    13   ar
    19    13    14   ar
    20     8     3   ar
    21    14     9   ar
@<TRIPOS>MOLECULE
*****
 20 21 0 0 0
SMALL
GASTEIGER

@<TRIPOS>ATOM
      1 C          62.6783   85.0989   12.4877 C.3     1  UNL1        0.1594
      2 C          61.8965   82.6959   14.1047 C.3     1  UNL1        0.0308
      3 C          62.5729   82.5192   12.7776 C.ar    1  UNL1       -0.0232
      4 C          62.8584   81.1410   12.2589 C.ar    1  UNL1       -0.0045
      5 C          63.5348   80.9642   10.9318 C.ar    1  UNL1       -0.0003
      6 C          63.9257   82.1657   10.1233 C.ar    1  UNL1       -0.0003
      7 C          63.6402   83.5439   10.6420 C.ar    1  UNL1       -0.0019
      8 C          62.9638   83.7206   11.9691 C.ar    1  UNL1        0.0048
      9 C          62.2587   86.1843   11.5413 C.ar    1  UNL1        0.0087
     10 C          62.7674   87.5827   11.7309 C.ar    1  UNL1       -0.0016
     11 C          62.3478   88.6681   10.7845 C.ar    1  UNL1       -0.0002
     12 C          61.4195   88.3553    9.6486 C.ar    1  UNL1       -0.0000
     13 C          60.9108   86.9570    9.4590 C.ar    1  UNL1       -0.0002
     14 C          61.3304   85.8715   10.4054 C.ar    1  UNL1       -0.0016
     15 O          62.8125   85.3916   13.9528 O.3     1  UNL1       -0.3460
     16 C          64.1488   85.7625   14.5242 C.3     1  UNL1        0.1602
     17 C          64.3290   87.0814   15.2156 C.3     1  UNL1        0.1047
     18 N          63.4377   87.4547   16.3629 N.3     1  UNL1       -0.2682
     19 C          63.1136   88.8960   16.6228 C.3     1  UNL1        0.0897
     20 C          62.8706   86.3866   17.2504 C.3     1  UNL1        0.0897
@<TRIPOS>BOND
     1     2     3    1
     2     3     4   ar
     3     4     5   ar
     4     5     6   ar
     5     6     7   ar
     6     7     8   ar
     7     8     1    1
     8     1    15    1
     9    15    16    1
    10    16    17    1
    11    17    18    1
    12    18    19    1
    13    18    20    1
    14     1     9    1
    15     9    10   ar
    16    10    11   ar
    17    11    12   ar
    18    12    13   ar
    19    13    14   ar
    20     8     3   ar
    21    14     9   ar
