@<TRIPOS>MOLECULE
*****
 28 31 0 0 0
SMALL
GASTEIGER

@<TRIPOS>ATOM
      1 C          62.4988   86.7249   11.4605 C.3     1  UNL1        0.0486
      2 C          61.6083   87.2219   10.3605 C.ar    1  UNL1       -0.0190
      3 C          60.9688   86.2481    9.4155 C.ar    1  UNL1        0.0355
      4 C          60.0783   86.7451    8.3156 C.ar    1  UNL1        0.1674
      5 O          59.4388   85.7714    7.3706 O.3     1  UNL1       -0.5029
      6 C          59.8272   88.2158    8.1605 C.ar    1  UNL1        0.1718
      7 C          60.4667   89.1895    9.1054 C.ar    1  UNL1        0.0355
      8 C          61.3573   88.6925   10.2055 C.ar    1  UNL1       -0.0221
      9 C          61.9968   89.6663   11.1505 C.3     1  UNL1        0.0374
     10 C          62.8873   89.1693   12.2504 C.3     1  UNL1        0.1076
     11 C          63.6498   89.8855   13.3254 C.2     1  UNL1        0.3169
     12 O          63.6840   91.3693   13.5428 O.2     1  UNL1       -0.2501
     13 O          64.3721   88.8575   14.1447 O.3     1  UNL1       -0.4485
     14 C          64.0560   87.5059   13.5762 C.3     1  UNL1        0.2095
     15 C          63.1383   87.6986   12.4054 C.3     1  UNL1        0.0628
     16 H          59.5956   84.8527    7.4674 H       1  UNL1        0.2923
     17 C          62.5908   83.0813   13.0308 C.ar    1  UNL1        0.1718
     18 C          62.3397   84.5521   12.8759 C.ar    1  UNL1        0.0361
     19 C          62.7498   85.2542   11.6155 C.ar    1  UNL1       -0.0151
     20 C          63.4111   84.4855   10.5099 C.ar    1  UNL1       -0.0006
     21 C          63.6621   83.0149   10.6649 C.ar    1  UNL1        0.0395
     22 C          63.2519   82.3127   11.9254 C.ar    1  UNL1        0.1677
     23 O          63.5030   80.8421   12.0803 O.3     1  UNL1       -0.5029
     24 H          63.9160   80.3620   11.3898 H       1  UNL1        0.2923
     25 C          61.1819   81.2613   14.2362 C.3     1  UNL1        0.2526
     26 O          62.1806   82.3792   14.2913 O.3     1  UNL1       -0.4684
     27 O          58.9367   88.7129    7.0605 O.3     1  UNL1       -0.4684
     28 C          59.3943   89.8323    6.1731 C.3     1  UNL1        0.2526
@<TRIPOS>BOND
     1    25    26    1
     2    26    17    1
     3    17    18   ar
     4    18    19   ar
     5     1    19    1
     6     1     2    1
     7     2     3   ar
     8     3     4   ar
     9     4     5    1
    10     4     6   ar
    11     6    27    1
    12    27    28    1
    13     6     7   ar
    14     7     8   ar
    15     8     9    1
    16    10     9    1
    17    10    11    1
    18    11    12    2
    19    11    13    1
    20    13    14    1
    21    15    14    1
    22    19    20   ar
    23    20    21   ar
    24    21    22   ar
    25    22    23    1
    26    22    17   ar
    27    15     1    1
    28     8     2   ar
    29    15    10    1
    30     5    16    1
    31    23    24    1
@<TRIPOS>MOLECULE
*****
 28 31 0 0 0
SMALL
GASTEIGER

@<TRIPOS>ATOM
      1 C          62.0252   86.8371   10.6300 C.3     1  UNL1        0.0486
      2 C          62.4910   88.0716   11.3434 C.ar    1  UNL1       -0.0190
      3 C          63.4040   87.9539   12.5278 C.ar    1  UNL1        0.0355
      4 C          63.8699   89.1884   13.2412 C.ar    1  UNL1        0.1674
      5 O          64.7828   89.0707   14.4256 O.3     1  UNL1       -0.5029
      6 C          63.4228   90.5406   12.7704 C.ar    1  UNL1        0.1718
      7 C          62.5098   90.6583   11.5861 C.ar    1  UNL1        0.0355
      8 C          62.0440   89.4237   10.8726 C.ar    1  UNL1       -0.0221
      9 C          61.1310   89.5414    9.6882 C.3     1  UNL1        0.0374
     10 C          60.6651   88.3069    8.9748 C.3     1  UNL1        0.1076
     11 C          59.7699   88.1116    7.7872 C.2     1  UNL1        0.3169
     12 O          59.0986   89.1983    7.0008 O.2     1  UNL1       -0.2501
     13 O          59.6637   86.6387    7.5241 O.3     1  UNL1       -0.4485
     14 C          60.4933   85.9237    8.5491 C.3     1  UNL1        0.2095
     15 C          61.1123   86.9548    9.4457 C.3     1  UNL1        0.0628
     16 H          65.0621   88.2260   14.7197 H       1  UNL1        0.2923
     17 C          62.6354   83.6967   12.9785 C.ar    1  UNL1        0.1718
     18 C          62.1882   85.0489   12.5077 C.ar    1  UNL1        0.0361
     19 C          62.4724   85.4849   11.1009 C.ar    1  UNL1       -0.0151
     20 C          63.2037   84.5688   10.1649 C.ar    1  UNL1       -0.0006
     21 C          63.6508   83.2167   10.6357 C.ar    1  UNL1        0.0395
     22 C          63.3667   82.7806   12.0426 C.ar    1  UNL1        0.1677
     23 O          63.8138   81.4285   12.5135 O.3     1  UNL1       -0.5029
     24 H          64.2706   80.8562   11.9288 H       1  UNL1        0.2923
     25 C          62.4803   84.2397   15.5146 C.3     1  UNL1        0.2526
     26 O          62.3513   83.2607   14.3853 O.3     1  UNL1       -0.4684
     27 O          63.8886   91.7751   13.4838 O.3     1  UNL1       -0.4684
     28 C          65.2756   92.2971   13.2519 C.3     1  UNL1        0.2526
@<TRIPOS>BOND
     1    25    26    1
     2    26    17    1
     3    17    18   ar
     4    18    19   ar
     5     1    19    1
     6     1     2    1
     7     2     3   ar
     8     3     4   ar
     9     4     5    1
    10     4     6   ar
    11     6    27    1
    12    27    28    1
    13     6     7   ar
    14     7     8   ar
    15     8     9    1
    16    10     9    1
    17    10    11    1
    18    11    12    2
    19    11    13    1
    20    13    14    1
    21    15    14    1
    22    19    20   ar
    23    20    21   ar
    24    21    22   ar
    25    22    23    1
    26    22    17   ar
    27    15     1    1
    28     8     2   ar
    29    15    10    1
    30     5    16    1
    31    23    24    1
@<TRIPOS>MOLECULE
*****
 28 31 0 0 0
SMALL
GASTEIGER

@<TRIPOS>ATOM
      1 C          63.2524   88.8655   12.7924 C.3     1  UNL1        0.0486
      2 C          63.4268   87.3952   13.0326 C.ar    1  UNL1       -0.0190
      3 C          64.2088   86.9168   14.2199 C.ar    1  UNL1        0.0355
      4 C          64.3832   85.4465   14.4602 C.ar    1  UNL1        0.1674
      5 O          65.1653   84.9681   15.6474 O.3     1  UNL1       -0.5029
      6 C          63.7756   84.4545   13.5132 C.ar    1  UNL1        0.1718
      7 C          62.9936   84.9328   12.3259 C.ar    1  UNL1        0.0355
      8 C          62.8192   86.4033   12.0857 C.ar    1  UNL1       -0.0221
      9 C          62.0371   86.8816   10.8984 C.3     1  UNL1        0.0374
     10 C          61.8627   88.3519   10.6581 C.3     1  UNL1        0.1076
     11 C          61.1497   89.1153    9.5816 C.2     1  UNL1        0.3169
     12 O          60.4012   88.5196    8.4263 O.2     1  UNL1       -0.2501
     13 O          61.3167   90.5791    9.8633 O.3     1  UNL1       -0.4485
     14 C          62.1329   90.7204   11.1139 C.3     1  UNL1        0.2095
     15 C          62.4703   89.3438   11.6051 C.3     1  UNL1        0.0628
     16 H          65.5448   85.5878   16.2390 H       1  UNL1        0.2923
     17 C          65.6040   91.7182   14.2352 C.ar    1  UNL1        0.1718
     18 C          64.9964   90.7262   13.2881 C.ar    1  UNL1        0.0361
     19 C          63.8600   89.8574   13.7394 C.ar    1  UNL1       -0.0151
     20 C          63.3312   89.9805   15.1377 C.ar    1  UNL1       -0.0006
     21 C          63.9388   90.9724   16.0847 C.ar    1  UNL1        0.0395
     22 C          65.0752   91.8413   15.6335 C.ar    1  UNL1        0.1677
     23 O          65.6828   92.8332   16.5805 O.3     1  UNL1       -0.5029
     24 H          65.3525   92.9101   17.4539 H       1  UNL1        0.2923
     25 C          66.4619   93.8639   13.0476 C.3     1  UNL1        0.2526
     26 O          66.7405   92.5870   13.7839 O.3     1  UNL1       -0.4684
     27 O          63.9500   82.9842   13.7534 O.3     1  UNL1       -0.4684
     28 C          62.7586   82.1294   14.0695 C.3     1  UNL1        0.2526
@<TRIPOS>BOND
     1    25    26    1
     2    26    17    1
     3    17    18   ar
     4    18    19   ar
     5     1    19    1
     6     1     2    1
     7     2     3   ar
     8     3     4   ar
     9     4     5    1
    10     4     6   ar
    11     6    27    1
    12    27    28    1
    13     6     7   ar
    14     7     8   ar
    15     8     9    1
    16    10     9    1
    17    10    11    1
    18    11    12    2
    19    11    13    1
    20    13    14    1
    21    15    14    1
    22    19    20   ar
    23    20    21   ar
    24    21    22   ar
    25    22    23    1
    26    22    17   ar
    27    15     1    1
    28     8     2   ar
    29    15    10    1
    30     5    16    1
    31    23    24    1
@<TRIPOS>MOLECULE
*****
 28 31 0 0 0
SMALL
GASTEIGER

@<TRIPOS>ATOM
      1 C          63.4920   87.9412   13.4250 C.3     1  UNL1        0.0486
      2 C          62.6761   88.0946   12.1757 C.ar    1  UNL1       -0.0190
      3 C          62.1666   89.4471   11.7741 C.ar    1  UNL1        0.0355
      4 C          61.3507   89.6005   10.5248 C.ar    1  UNL1        0.1674
      5 O          60.8412   90.9529   10.1232 O.3     1  UNL1       -0.5029
      6 C          61.0442   88.4015    9.6771 C.ar    1  UNL1        0.1718
      7 C          61.5538   87.0491   10.0788 C.ar    1  UNL1        0.0355
      8 C          62.3697   86.8956   11.3281 C.ar    1  UNL1       -0.0221
      9 C          62.8792   85.5431   11.7297 C.3     1  UNL1        0.0374
     10 C          63.6951   85.3897   12.9790 C.3     1  UNL1        0.1076
     11 C          64.3282   84.1923   13.6236 C.2     1  UNL1        0.3169
     12 O          64.2733   82.7833   13.1119 O.2     1  UNL1       -0.2501
     13 O          65.0259   84.6513   14.8696 O.3     1  UNL1       -0.4485
     14 C          64.8240   86.1324   14.9951 C.3     1  UNL1        0.2095
     15 C          64.0015   86.5887   13.8267 C.3     1  UNL1        0.0628
     16 H          61.0326   91.7019   10.6527 H       1  UNL1        0.2923
     17 C          64.9660   91.4409   14.5779 C.ar    1  UNL1        0.1718
     18 C          64.6597   90.2419   13.7301 C.ar    1  UNL1        0.0361
     19 C          63.7984   89.1402   14.2727 C.ar    1  UNL1       -0.0151
     20 C          63.2435   89.2374   15.6629 C.ar    1  UNL1       -0.0006
     21 C          63.5498   90.4364   16.5105 C.ar    1  UNL1        0.0395
     22 C          64.4111   91.5382   15.9680 C.ar    1  UNL1        0.1677
     23 O          64.7175   92.7371   16.8157 O.3     1  UNL1       -0.5029
     24 H          64.3709   92.7979   17.6841 H       1  UNL1        0.2923
     25 C          65.7501   92.9089   12.5827 C.3     1  UNL1        0.2526
     26 O          65.8273   92.5426   14.0354 O.3     1  UNL1       -0.4684
     27 O          60.2283   88.5549    8.4278 O.3     1  UNL1       -0.4684
     28 C          59.4619   87.3856    7.8843 C.3     1  UNL1        0.2526
@<TRIPOS>BOND
     1    25    26    1
     2    26    17    1
     3    17    18   ar
     4    18    19   ar
     5     1    19    1
     6     1     2    1
     7     2     3   ar
     8     3     4   ar
     9     4     5    1
    10     4     6   ar
    11     6    27    1
    12    27    28    1
    13     6     7   ar
    14     7     8   ar
    15     8     9    1
    16    10     9    1
    17    10    11    1
    18    11    12    2
    19    11    13    1
    20    13    14    1
    21    15    14    1
    22    19    20   ar
    23    20    21   ar
    24    21    22   ar
    25    22    23    1
    26    22    17   ar
    27    15     1    1
    28     8     2   ar
    29    15    10    1
    30     5    16    1
    31    23    24    1
@<TRIPOS>MOLECULE
*****
 28 31 0 0 0
SMALL
GASTEIGER

@<TRIPOS>ATOM
      1 C          62.6521   86.3387   11.9073 C.3     1  UNL1        0.0486
      2 C          63.1487   87.5990   12.5517 C.ar    1  UNL1       -0.0190
      3 C          62.8566   88.9287   11.9219 C.ar    1  UNL1        0.0355
      4 C          63.3532   90.1889   12.5662 C.ar    1  UNL1        0.1674
      5 O          63.0611   91.5187   11.9365 O.3     1  UNL1       -0.5029
      6 C          64.1419   90.1195   13.8403 C.ar    1  UNL1        0.1718
      7 C          64.4339   88.7898   14.4700 C.ar    1  UNL1        0.0355
      8 C          63.9373   87.5295   13.8256 C.ar    1  UNL1       -0.0221
      9 C          64.2294   86.1998   14.4554 C.3     1  UNL1        0.0374
     10 C          63.7328   84.9395   13.8111 C.3     1  UNL1        0.1076
     11 C          63.8642   83.4960   14.1968 C.2     1  UNL1        0.3169
     12 O          64.5778   82.9678   15.4059 O.2     1  UNL1       -0.2501
     13 O          63.1568   82.6733   13.1611 O.3     1  UNL1       -0.4485
     14 C          62.5881   83.6084   12.1353 C.3     1  UNL1        0.2095
     15 C          62.9441   85.0090   12.5370 C.3     1  UNL1        0.0628
     16 H          62.5685   91.5621   11.1407 H       1  UNL1        0.2923
     17 C          61.6192   85.8601    8.1054 C.ar    1  UNL1        0.1718
     18 C          62.4080   85.7906    9.3795 C.ar    1  UNL1        0.0361
     19 C          61.8634   86.4082   10.6333 C.ar    1  UNL1       -0.0151
     20 C          60.5302   87.0954   10.6130 C.ar    1  UNL1       -0.0006
     21 C          59.7415   87.1649    9.3390 C.ar    1  UNL1        0.0395
     22 C          60.2860   86.5473    8.0852 C.ar    1  UNL1        0.1677
     23 O          59.4974   86.6168    6.8112 O.3     1  UNL1       -0.5029
     24 H          58.6646   87.0460    6.7986 H       1  UNL1        0.2923
     25 C          61.4064   84.1436    6.1667 C.3     1  UNL1        0.2526
     26 O          62.1638   85.2425    6.8517 O.3     1  UNL1       -0.4684
     27 O          64.6385   91.3798   14.4846 O.3     1  UNL1       -0.4684
     28 C          66.1083   91.6774   14.5156 C.3     1  UNL1        0.2526
@<TRIPOS>BOND
     1    25    26    1
     2    26    17    1
     3    17    18   ar
     4    18    19   ar
     5     1    19    1
     6     1     2    1
     7     2     3   ar
     8     3     4   ar
     9     4     5    1
    10     4     6   ar
    11     6    27    1
    12    27    28    1
    13     6     7   ar
    14     7     8   ar
    15     8     9    1
    16    10     9    1
    17    10    11    1
    18    11    12    2
    19    11    13    1
    20    13    14    1
    21    15    14    1
    22    19    20   ar
    23    20    21   ar
    24    21    22   ar
    25    22    23    1
    26    22    17   ar
    27    15     1    1
    28     8     2   ar
    29    15    10    1
    30     5    16    1
    31    23    24    1
@<TRIPOS>MOLECULE
*****
 28 31 0 0 0
SMALL
GASTEIGER

@<TRIPOS>ATOM
      1 C          62.8790   85.9017   11.7407 C.3     1  UNL1        0.0486
      2 C          63.1860   87.2474   12.3281 C.ar    1  UNL1       -0.0190
      3 C          62.9219   88.4911   11.5322 C.ar    1  UNL1        0.0355
      4 C          63.2289   89.8367   12.1196 C.ar    1  UNL1        0.1674
      5 O          62.9648   91.0804   11.3237 O.3     1  UNL1       -0.5029
      6 C          63.8000   89.9387   13.5029 C.ar    1  UNL1        0.1718
      7 C          64.0641   88.6950   14.2987 C.ar    1  UNL1        0.0355
      8 C          63.7571   87.3493   13.7113 C.ar    1  UNL1       -0.0221
      9 C          64.0213   86.1055   14.5073 C.3     1  UNL1        0.0374
     10 C          63.7143   84.7599   13.9199 C.3     1  UNL1        0.1076
     11 C          63.8672   83.3697   14.4618 C.2     1  UNL1        0.3169
     12 O          64.4027   83.0046   15.8146 O.2     1  UNL1       -0.2501
     13 O          63.3906   82.4085   13.4135 O.3     1  UNL1       -0.4485
     14 C          62.9431   83.2048   12.2236 C.3     1  UNL1        0.2095
     15 C          63.1431   84.6580   12.5366 C.3     1  UNL1        0.0628
     16 H          62.6080   91.0167   10.4596 H       1  UNL1        0.2923
     17 C          60.3941   86.2939    8.6713 C.ar    1  UNL1        0.1718
     18 C          60.9651   86.3959   10.0546 C.ar    1  UNL1        0.0361
     19 C          62.3079   85.7999   10.3574 C.ar    1  UNL1       -0.0151
     20 C          63.0796   85.1019    9.2769 C.ar    1  UNL1       -0.0006
     21 C          62.5086   85.0000    7.8937 C.ar    1  UNL1        0.0395
     22 C          61.1657   85.5960    7.5908 C.ar    1  UNL1        0.1677
     23 O          60.5947   85.4941    6.2076 O.3     1  UNL1       -0.5029
     24 H          61.0767   85.0581    5.5327 H       1  UNL1        0.2923
     25 C          58.9582   88.1944    7.6337 C.3     1  UNL1        0.2526
     26 O          59.0513   86.8900    8.3685 O.3     1  UNL1       -0.4684
     27 O          64.1070   91.2843   14.0903 O.3     1  UNL1       -0.4684
     28 C          65.5208   91.7846   14.1205 C.3     1  UNL1        0.2526
@<TRIPOS>BOND
     1    25    26    1
     2    26    17    1
     3    17    18   ar
     4    18    19   ar
     5     1    19    1
     6     1     2    1
     7     2     3   ar
     8     3     4   ar
     9     4     5    1
    10     4     6   ar
    11     6    27    1
    12    27    28    1
    13     6     7   ar
    14     7     8   ar
    15     8     9    1
    16    10     9    1
    17    10    11    1
    18    11    12    2
    19    11    13    1
    20    13    14    1
    21    15    14    1
    22    19    20   ar
    23    20    21   ar
    24    21    22   ar
    25    22    23    1
    26    22    17   ar
    27    15     1    1
    28     8     2   ar
    29    15    10    1
    30     5    16    1
    31    23    24    1
@<TRIPOS>MOLECULE
*****
 28 31 0 0 0
SMALL
GASTEIGER

@<TRIPOS>ATOM
      1 C          62.1214   86.9083   10.9420 C.3     1  UNL1        0.0486
      2 C          62.6280   88.1838   11.5474 C.ar    1  UNL1       -0.0190
      3 C          63.5115   88.1397   12.7589 C.ar    1  UNL1        0.0355
      4 C          64.0181   89.4152   13.3644 C.ar    1  UNL1        0.1674
      5 O          64.9015   89.3712   14.5758 O.3     1  UNL1       -0.5029
      6 C          63.6413   90.7347   12.7585 C.ar    1  UNL1        0.1718
      7 C          62.7578   90.7786   11.5471 C.ar    1  UNL1        0.0355
      8 C          62.2512   89.5031   10.9415 C.ar    1  UNL1       -0.0221
      9 C          61.3677   89.5471    9.7300 C.3     1  UNL1        0.0374
     10 C          60.8611   88.2717    9.1246 C.3     1  UNL1        0.1076
     11 C          59.9814   88.0033    7.9397 C.2     1  UNL1        0.3169
     12 O          59.3750   89.0384    7.0392 O.2     1  UNL1       -0.2501
     13 O          59.8146   86.5180    7.8133 O.3     1  UNL1       -0.4485
     14 C          60.5912   85.8684    8.9201 C.3     1  UNL1        0.2095
     15 C          61.2380   86.9523    9.7305 C.3     1  UNL1        0.0628
     16 H          65.1369   88.5470   14.9544 H       1  UNL1        0.2923
     17 C          63.4325   83.1786   11.2885 C.ar    1  UNL1        0.1718
     18 C          63.0557   84.4980   10.6824 C.ar    1  UNL1        0.0361
     19 C          62.4983   85.5889   11.5479 C.ar    1  UNL1       -0.0151
     20 C          62.3177   85.3605   13.0195 C.ar    1  UNL1       -0.0006
     21 C          62.6945   84.0412   13.6254 C.ar    1  UNL1        0.0395
     22 C          63.2520   82.9502   12.7600 C.ar    1  UNL1        0.1677
     23 O          63.6288   81.6309   13.3659 O.3     1  UNL1       -0.5029
     24 H          63.5160   81.4882   14.2851 H       1  UNL1        0.2923
     25 C          63.2219   80.8128   10.2355 C.3     1  UNL1        0.2526
     26 O          63.9899   82.0876   10.4230 O.3     1  UNL1       -0.4684
     27 O          64.1479   92.0101   13.3640 O.3     1  UNL1       -0.4684
     28 C          65.5388   92.4832   13.0617 C.3     1  UNL1        0.2526
@<TRIPOS>BOND
     1    25    26    1
     2    26    17    1
     3    17    18   ar
     4    18    19   ar
     5     1    19    1
     6     1     2    1
     7     2     3   ar
     8     3     4   ar
     9     4     5    1
    10     4     6   ar
    11     6    27    1
    12    27    28    1
    13     6     7   ar
    14     7     8   ar
    15     8     9    1
    16    10     9    1
    17    10    11    1
    18    11    12    2
    19    11    13    1
    20    13    14    1
    21    15    14    1
    22    19    20   ar
    23    20    21   ar
    24    21    22   ar
    25    22    23    1
    26    22    17   ar
    27    15     1    1
    28     8     2   ar
    29    15    10    1
    30     5    16    1
    31    23    24    1
@<TRIPOS>MOLECULE
*****
 28 31 0 0 0
SMALL
GASTEIGER

@<TRIPOS>ATOM
      1 C          62.5021   88.2514   11.4531 C.3     1  UNL1        0.0486
      2 C          62.7482   86.8548   11.9419 C.ar    1  UNL1       -0.0190
      3 C          63.7388   86.6087   13.0412 C.ar    1  UNL1        0.0355
      4 C          63.9850   85.2121   13.5300 C.ar    1  UNL1        0.1674
      5 O          64.9755   84.9659   14.6292 O.3     1  UNL1       -0.5029
      6 C          63.2407   84.0616   12.9196 C.ar    1  UNL1        0.1718
      7 C          62.2502   84.3078   11.8204 C.ar    1  UNL1        0.0355
      8 C          62.0040   85.7045   11.3316 C.ar    1  UNL1       -0.0221
      9 C          61.0134   85.9506   10.2323 C.3     1  UNL1        0.0374
     10 C          60.7672   87.3472    9.7435 C.3     1  UNL1        0.1076
     11 C          59.8581   87.8937    8.6829 C.2     1  UNL1        0.3169
     12 O          58.9296   87.0926    7.8191 O.2     1  UNL1       -0.2501
     13 O          60.0406   89.3818    8.6378 O.3     1  UNL1       -0.4485
     14 C          61.0625   89.7551    9.6706 C.3     1  UNL1        0.2095
     15 C          61.5115   88.4976   10.3539 C.3     1  UNL1        0.0628
     16 H          65.4404   85.6845   15.0105 H       1  UNL1        0.2923
     17 C          64.4687   91.6801   11.8085 C.ar    1  UNL1        0.1718
     18 C          63.7244   90.5297   11.1980 C.ar    1  UNL1        0.0361
     19 C          63.2464   89.4018   12.0635 C.ar    1  UNL1       -0.0151
     20 C          63.5127   89.4242   13.5396 C.ar    1  UNL1       -0.0006
     21 C          64.2570   90.5745   14.1500 C.ar    1  UNL1        0.0395
     22 C          64.7351   91.7025   13.2844 C.ar    1  UNL1        0.1677
     23 O          65.4794   92.8528   13.8948 O.3     1  UNL1       -0.5029
     24 H          65.6457   92.8668   14.8168 H       1  UNL1        0.2923
     25 C          66.3679   92.8354   10.4636 C.3     1  UNL1        0.2526
     26 O          64.9467   92.8080   10.9429 O.3     1  UNL1       -0.4684
     27 O          63.4868   82.6650   13.4084 O.3     1  UNL1       -0.4684
     28 C          62.4205   81.9396   14.1745 C.3     1  UNL1        0.2526
@<TRIPOS>BOND
     1    25    26    1
     2    26    17    1
     3    17    18   ar
     4    18    19   ar
     5     1    19    1
     6     1     2    1
     7     2     3   ar
     8     3     4   ar
     9     4     5    1
    10     4     6   ar
    11     6    27    1
    12    27    28    1
    13     6     7   ar
    14     7     8   ar
    15     8     9    1
    16    10     9    1
    17    10    11    1
    18    11    12    2
    19    11    13    1
    20    13    14    1
    21    15    14    1
    22    19    20   ar
    23    20    21   ar
    24    21    22   ar
    25    22    23    1
    26    22    17   ar
    27    15     1    1
    28     8     2   ar
    29    15    10    1
    30     5    16    1
    31    23    24    1
@<TRIPOS>MOLECULE
*****
 28 31 0 0 0
SMALL
GASTEIGER

@<TRIPOS>ATOM
      1 C          62.5328   88.2210   11.5594 C.3     1  UNL1        0.0486
      2 C          62.7866   86.8108   12.0031 C.ar    1  UNL1       -0.0190
      3 C          63.7140   86.5412   13.1509 C.ar    1  UNL1        0.0355
      4 C          63.9678   85.1310   13.5947 C.ar    1  UNL1        0.1674
      5 O          64.8952   84.8614   14.7424 O.3     1  UNL1       -0.5029
      6 C          63.2943   83.9904   12.8908 C.ar    1  UNL1        0.1718
      7 C          62.3669   84.2601   11.7430 C.ar    1  UNL1        0.0355
      8 C          62.1131   85.6704   11.2992 C.ar    1  UNL1       -0.0221
      9 C          61.1857   85.9400   10.1514 C.3     1  UNL1        0.0374
     10 C          60.9319   87.3502    9.7077 C.3     1  UNL1        0.1076
     11 C          60.0752   87.9201    8.6163 C.2     1  UNL1        0.3169
     12 O          59.2239   87.1351    7.6628 O.2     1  UNL1       -0.2501
     13 O          60.2193   89.4128    8.6457 O.3     1  UNL1       -0.4485
     14 C          61.1650   89.7655    9.7553 C.3     1  UNL1        0.2095
     15 C          61.6055   88.4907   10.4116 C.3     1  UNL1        0.0628
     16 H          65.3159   85.5738   15.1821 H       1  UNL1        0.2923
     17 C          63.8201   90.6008   14.4628 C.ar    1  UNL1        0.1718
     18 C          63.1465   89.4602   13.7589 C.ar    1  UNL1        0.0361
     19 C          63.2064   89.3615   12.2633 C.ar    1  UNL1       -0.0151
     20 C          63.9398   90.4035   11.4717 C.ar    1  UNL1       -0.0006
     21 C          64.6133   91.5439   12.1756 C.ar    1  UNL1        0.0395
     22 C          64.5535   91.6426   13.6712 C.ar    1  UNL1        0.1677
     23 O          65.2270   92.7831   14.3751 O.3     1  UNL1       -0.5029
     24 H          65.6851   93.4339   13.8806 H       1  UNL1        0.2923
     25 C          63.1759   89.5752   16.7614 C.3     1  UNL1        0.2526
     26 O          63.7602   90.6995   15.9583 O.3     1  UNL1       -0.4684
     27 O          63.5481   82.5803   13.3345 O.3     1  UNL1       -0.4684
     28 C          62.5111   81.8470   14.1327 C.3     1  UNL1        0.2526
@<TRIPOS>BOND
     1    25    26    1
     2    26    17    1
     3    17    18   ar
     4    18    19   ar
     5     1    19    1
     6     1     2    1
     7     2     3   ar
     8     3     4   ar
     9     4     5    1
    10     4     6   ar
    11     6    27    1
    12    27    28    1
    13     6     7   ar
    14     7     8   ar
    15     8     9    1
    16    10     9    1
    17    10    11    1
    18    11    12    2
    19    11    13    1
    20    13    14    1
    21    15    14    1
    22    19    20   ar
    23    20    21   ar
    24    21    22   ar
    25    22    23    1
    26    22    17   ar
    27    15     1    1
    28     8     2   ar
    29    15    10    1
    30     5    16    1
    31    23    24    1
