@<TRIPOS>MOLECULE
*****
 33 36 0 0 0
SMALL
GASTEIGER

@<TRIPOS>ATOM
      1 C          61.9579   88.5851   11.5412 C.ar    1  UNL1        0.2298
      2 N          62.7120   87.5075   12.2625 N.ar    1  UNL1       -0.1786
      3 C          62.7368   86.1124   11.7119 C.ar    1  UNL1        0.2229
      4 N          62.0077   85.7949   10.4401 N.ar    1  UNL1       -0.2180
      5 C          61.2536   86.8725    9.7188 C.ar    1  UNL1        0.0641
      6 C          61.2288   88.2676   10.2694 C.ar    1  UNL1        0.0559
      7 C          60.4748   89.3451    9.5481 C.3     1  UNL1        0.0897
      8 S          59.7456   89.0276    8.2763 S.3     1  UNL1       -0.1348
      9 C          59.7705   87.6325    7.7258 C.3     1  UNL1        0.0642
     10 C          60.5245   86.5550    8.4470 C.3     1  UNL1        0.0574
     11 N          63.4909   85.0348   12.4333 N.pl3   1  UNL1       -0.2825
     12 H          64.0861   85.2674   13.1822 H       1  UNL1        0.1551
     13 C          63.3382   83.6029   12.0134 C.ar    1  UNL1        0.0505
     14 C          62.5636   82.6479   12.8727 C.ar    1  UNL1        0.0154
     15 C          62.4109   81.2160   12.4528 C.ar    1  UNL1        0.0115
     16 C          63.0326   80.7390   11.1737 C.ar    1  UNL1        0.0685
     17 C          63.8071   81.6940   10.3145 C.ar    1  UNL1        0.0115
     18 C          63.9599   83.1259   10.7344 C.ar    1  UNL1        0.0154
     19 C          62.8799   79.3071   10.7539 C.1     1  UNL1        0.1004
     20 N          62.7271   77.8752   10.3340 N.1     1  UNL1       -0.1908
     21 O          61.9331   89.9801   12.0918 O.3     1  UNL1       -0.4369
     22 C          62.8980   89.6980   14.9183 C.3     1  UNL1        0.0342
     23 C          63.6928   90.5001   13.9310 C.ar    1  UNL1        0.0124
     24 C          64.9702   91.1613   14.3570 C.ar    1  UNL1       -0.0012
     25 C          65.7650   91.9634   13.3697 C.ar    1  UNL1        0.0003
     26 C          65.2825   92.1045   11.9564 C.ar    1  UNL1       -0.0012
     27 C          64.0052   91.4434   11.5305 C.ar    1  UNL1        0.0124
     28 C          63.5227   91.5845   10.1172 C.3     1  UNL1        0.0342
     29 C          63.2103   90.6412   12.5178 C.ar    1  UNL1        0.1391
     30 C          67.0422   92.6245   13.7957 C.2     1  UNL1        0.0109
     31 C          67.2716   92.9514   15.2415 C.2     1  UNL1        0.0780
     32 C          68.5490   93.6126   15.6675 C.1     1  UNL1        0.1011
     33 N          69.8263   94.2737   16.0934 N.1     1  UNL1       -0.1908
@<TRIPOS>BOND
     1    22    23    1
     2    23    24   ar
     3    24    25   ar
     4    25    30    1
     5    30    31    2
     6    31    32    1
     7    32    33    3
     8    25    26   ar
     9    26    27   ar
    10    27    28    1
    11    27    29   ar
    12    29    21    1
    13    21     1    1
    14     1     2   ar
    15     2     3   ar
    16     3    11    1
    17    11    13    1
    18    13    14   ar
    19    14    15   ar
    20    15    16   ar
    21    16    19    1
    22    19    20    3
    23    16    17   ar
    24    17    18   ar
    25     3     4   ar
    26     4     5   ar
    27     5     6   ar
    28     6     7    1
    29     7     8    1
    30     8     9    1
    31     9    10    1
    32    29    23   ar
    33     6     1   ar
    34    18    13   ar
    35    10     5    1
    36    11    12    1
@<TRIPOS>MOLECULE
*****
 33 36 0 0 0
SMALL
GASTEIGER

@<TRIPOS>ATOM
      1 C          61.9548   88.5838   11.5383 C.ar    1  UNL1        0.2298
      2 N          62.7080   87.5061   12.2601 N.ar    1  UNL1       -0.1786
      3 C          62.7319   86.1107   11.7102 C.ar    1  UNL1        0.2229
      4 N          62.0025   85.7930   10.4386 N.ar    1  UNL1       -0.2180
      5 C          61.2492   86.8708    9.7168 C.ar    1  UNL1        0.0641
      6 C          61.2253   88.2662   10.2666 C.ar    1  UNL1        0.0559
      7 C          60.4721   89.3440    9.5448 C.3     1  UNL1        0.0897
      8 S          59.7427   89.0263    8.2732 S.3     1  UNL1       -0.1348
      9 C          59.7665   87.6309    7.7234 C.3     1  UNL1        0.0642
     10 C          60.5198   86.5532    8.4452 C.3     1  UNL1        0.0574
     11 N          63.4852   85.0329   12.4321 N.pl3   1  UNL1       -0.2825
     12 H          64.0791   85.2652   13.1821 H       1  UNL1        0.1551
     13 C          63.3335   83.6012   12.0112 C.ar    1  UNL1        0.0505
     14 C          63.9535   83.1263   10.7304 C.ar    1  UNL1        0.0154
     15 C          63.8018   81.6946   10.3094 C.ar    1  UNL1        0.0115
     16 C          63.0303   80.7377   11.1693 C.ar    1  UNL1        0.0685
     17 C          62.4104   81.2126   12.4499 C.ar    1  UNL1        0.0115
     18 C          62.5621   82.6443   12.8709 C.ar    1  UNL1        0.0154
     19 C          62.8787   79.3060   10.7483 C.1     1  UNL1        0.1004
     20 N          62.7271   77.8743   10.3274 N.1     1  UNL1       -0.1908
     21 O          61.9309   89.9792   12.0881 O.3     1  UNL1       -0.4369
     22 C          63.5216   91.5835   10.1143 C.3     1  UNL1        0.0342
     23 C          64.0040   91.4414   11.5275 C.ar    1  UNL1        0.0124
     24 C          65.2817   92.1016   11.9538 C.ar    1  UNL1       -0.0012
     25 C          65.7641   91.9595   13.3670 C.ar    1  UNL1        0.0003
     26 C          64.9687   91.1574   14.3539 C.ar    1  UNL1       -0.0012
     27 C          63.6910   90.4973   13.9276 C.ar    1  UNL1        0.0124
     28 C          62.8957   89.6951   14.9145 C.3     1  UNL1        0.0342
     29 C          63.2086   90.6393   12.5144 C.ar    1  UNL1        0.1391
     30 C          67.0417   92.6196   13.7932 C.2     1  UNL1        0.0109
     31 C          67.2708   92.9469   15.2391 C.2     1  UNL1        0.0780
     32 C          68.5486   93.6070   15.6653 C.1     1  UNL1        0.1011
     33 N          69.8263   94.2671   16.0915 N.1     1  UNL1       -0.1908
@<TRIPOS>BOND
     1    22    23    1
     2    23    24   ar
     3    24    25   ar
     4    25    30    1
     5    30    31    2
     6    31    32    1
     7    32    33    3
     8    25    26   ar
     9    26    27   ar
    10    27    28    1
    11    27    29   ar
    12    29    21    1
    13    21     1    1
    14     1     2   ar
    15     2     3   ar
    16     3    11    1
    17    11    13    1
    18    13    14   ar
    19    14    15   ar
    20    15    16   ar
    21    16    19    1
    22    19    20    3
    23    16    17   ar
    24    17    18   ar
    25     3     4   ar
    26     4     5   ar
    27     5     6   ar
    28     6     7    1
    29     7     8    1
    30     8     9    1
    31     9    10    1
    32    29    23   ar
    33     6     1   ar
    34    18    13   ar
    35    10     5    1
    36    11    12    1
@<TRIPOS>MOLECULE
*****
 33 36 0 0 0
SMALL
GASTEIGER

@<TRIPOS>ATOM
      1 C          62.4911   86.7101   12.0937 C.ar    1  UNL1        0.2298
      2 N          62.4602   88.2075   12.1775 N.ar    1  UNL1       -0.1786
      3 C          63.2864   88.9182   13.2082 C.ar    1  UNL1        0.2229
      4 N          64.1434   88.1315   14.1552 N.ar    1  UNL1       -0.2180
      5 C          64.1743   86.6341   14.0714 C.ar    1  UNL1        0.0641
      6 C          63.3481   85.9234   13.0407 C.ar    1  UNL1        0.0559
      7 C          63.3789   84.4261   12.9569 C.3     1  UNL1        0.0897
      8 S          64.2359   83.6395   13.9039 S.3     1  UNL1       -0.1348
      9 C          65.0621   84.3502   14.9346 C.3     1  UNL1        0.0642
     10 C          65.0313   85.8475   15.0184 C.3     1  UNL1        0.0574
     11 N          63.2555   90.4155   13.2920 N.pl3   1  UNL1       -0.2825
     12 H          62.5795   90.8635   13.8501 H       1  UNL1        0.1551
     13 C          64.2547   91.2303   12.5253 C.ar    1  UNL1        0.0505
     14 C          65.5197   91.6858   13.1905 C.ar    1  UNL1        0.0154
     15 C          66.5188   92.5006   12.4238 C.ar    1  UNL1        0.0115
     16 C          66.2530   92.8599   10.9919 C.ar    1  UNL1        0.0685
     17 C          64.9880   92.4045   10.3268 C.ar    1  UNL1        0.0115
     18 C          63.9889   91.5897   11.0934 C.ar    1  UNL1        0.0154
     19 C          67.2521   93.6747   10.2252 C.1     1  UNL1        0.1004
     20 N          68.2513   94.4895    9.4585 N.1     1  UNL1       -0.1908
     21 O          61.6649   85.9994   11.0630 O.3     1  UNL1       -0.4369
     22 C          62.3296   85.3693    8.2062 C.3     1  UNL1        0.0342
     23 C          61.3514   86.4607    8.5255 C.ar    1  UNL1        0.0124
     24 C          60.7056   87.2371    7.4164 C.ar    1  UNL1       -0.0012
     25 C          59.7274   88.3285    7.7356 C.ar    1  UNL1        0.0003
     26 C          59.3951   88.6436    9.1640 C.ar    1  UNL1       -0.0012
     27 C          60.0409   87.8673   10.2731 C.ar    1  UNL1        0.0124
     28 C          59.7085   88.1823   11.7015 C.3     1  UNL1        0.0342
     29 C          61.0191   86.7758    9.9539 C.ar    1  UNL1        0.1391
     30 C          59.0816   89.1048    6.6265 C.2     1  UNL1        0.0109
     31 C          59.6198   90.4508    6.2409 C.2     1  UNL1        0.0780
     32 C          58.9740   91.2271    5.1317 C.1     1  UNL1        0.1011
     33 N          58.3281   92.0034    4.0226 N.1     1  UNL1       -0.1908
@<TRIPOS>BOND
     1    22    23    1
     2    23    24   ar
     3    24    25   ar
     4    25    30    1
     5    30    31    2
     6    31    32    1
     7    32    33    3
     8    25    26   ar
     9    26    27   ar
    10    27    28    1
    11    27    29   ar
    12    29    21    1
    13    21     1    1
    14     1     2   ar
    15     2     3   ar
    16     3    11    1
    17    11    13    1
    18    13    14   ar
    19    14    15   ar
    20    15    16   ar
    21    16    19    1
    22    19    20    3
    23    16    17   ar
    24    17    18   ar
    25     3     4   ar
    26     4     5   ar
    27     5     6   ar
    28     6     7    1
    29     7     8    1
    30     8     9    1
    31     9    10    1
    32    29    23   ar
    33     6     1   ar
    34    18    13   ar
    35    10     5    1
    36    11    12    1
@<TRIPOS>MOLECULE
*****
 33 36 0 0 0
SMALL
GASTEIGER

@<TRIPOS>ATOM
      1 C          62.5335   86.7784   12.0443 C.ar    1  UNL1        0.2298
      2 N          62.5614   88.2781   12.0355 N.ar    1  UNL1       -0.1786
      3 C          63.3970   89.0186   13.0372 C.ar    1  UNL1        0.2229
      4 N          64.2047   88.2594   14.0477 N.ar    1  UNL1       -0.2180
      5 C          64.1769   86.7597   14.0565 C.ar    1  UNL1        0.0641
      6 C          63.3413   86.0191   13.0549 C.ar    1  UNL1        0.0559
      7 C          63.3134   84.5195   13.0637 C.3     1  UNL1        0.0897
      8 S          64.1212   83.7603   14.0742 S.3     1  UNL1       -0.1348
      9 C          64.9568   84.5008   15.0759 C.3     1  UNL1        0.0642
     10 C          64.9847   86.0005   15.0670 C.3     1  UNL1        0.0574
     11 N          63.4248   90.5184   13.0283 N.pl3   1  UNL1       -0.2825
     12 H          62.6826   91.0221   12.6227 H       1  UNL1        0.1551
     13 C          64.5836   91.2506   13.6376 C.ar    1  UNL1        0.0505
     14 C          64.7283   91.3169   15.1292 C.ar    1  UNL1        0.0154
     15 C          65.8871   92.0491   15.7384 C.ar    1  UNL1        0.0115
     16 C          66.9011   92.7150   14.8561 C.ar    1  UNL1        0.0685
     17 C          66.7563   92.6487   13.3646 C.ar    1  UNL1        0.0115
     18 C          65.5975   91.9165   12.7554 C.ar    1  UNL1        0.0154
     19 C          68.0598   93.4472   15.4654 C.1     1  UNL1        0.1004
     20 N          69.2186   94.1794   16.0746 N.1     1  UNL1       -0.1908
     21 O          61.6979   86.0379   11.0426 O.3     1  UNL1       -0.4369
     22 C          62.3365   85.3666    8.1893 C.3     1  UNL1        0.0342
     23 C          61.3455   86.4484    8.5015 C.ar    1  UNL1        0.0124
     24 C          60.6738   87.1947    7.3871 C.ar    1  UNL1       -0.0012
     25 C          59.6828   88.2765    7.6993 C.ar    1  UNL1        0.0003
     26 C          59.3635   88.6122    9.1260 C.ar    1  UNL1       -0.0012
     27 C          60.0351   87.8660   10.2404 C.ar    1  UNL1        0.0124
     28 C          59.7158   88.2016   11.6671 C.3     1  UNL1        0.0342
     29 C          61.0262   86.7841    9.9282 C.ar    1  UNL1        0.1391
     30 C          59.0111   89.0227    6.5849 C.2     1  UNL1        0.0109
     31 C          59.4159   90.4337    6.2762 C.2     1  UNL1        0.0780
     32 C          58.7441   91.1799    5.1617 C.1     1  UNL1        0.1011
     33 N          58.0725   91.9261    4.0473 N.1     1  UNL1       -0.1908
@<TRIPOS>BOND
     1    22    23    1
     2    23    24   ar
     3    24    25   ar
     4    25    30    1
     5    30    31    2
     6    31    32    1
     7    32    33    3
     8    25    26   ar
     9    26    27   ar
    10    27    28    1
    11    27    29   ar
    12    29    21    1
    13    21     1    1
    14     1     2   ar
    15     2     3   ar
    16     3    11    1
    17    11    13    1
    18    13    14   ar
    19    14    15   ar
    20    15    16   ar
    21    16    19    1
    22    19    20    3
    23    16    17   ar
    24    17    18   ar
    25     3     4   ar
    26     4     5   ar
    27     5     6   ar
    28     6     7    1
    29     7     8    1
    30     8     9    1
    31     9    10    1
    32    29    23   ar
    33     6     1   ar
    34    18    13   ar
    35    10     5    1
    36    11    12    1
@<TRIPOS>MOLECULE
*****
 33 36 0 0 0
SMALL
GASTEIGER

@<TRIPOS>ATOM
      1 C          63.3092   86.9088   12.4422 C.ar    1  UNL1        0.2298
      2 N          63.4539   87.9013   13.5575 N.ar    1  UNL1       -0.1786
      3 C          62.6759   89.1834   13.5262 C.ar    1  UNL1        0.2229
      4 N          61.7532   89.4729   12.3795 N.ar    1  UNL1       -0.2180
      5 C          61.6085   88.4804   11.2642 C.ar    1  UNL1        0.0641
      6 C          62.3865   87.1983   11.2955 C.ar    1  UNL1        0.0559
      7 C          62.2418   86.2057   10.1803 C.3     1  UNL1        0.0897
      8 S          61.3191   86.4953    9.0337 S.3     1  UNL1       -0.1348
      9 C          60.5411   87.7774    9.0023 C.3     1  UNL1        0.0642
     10 C          60.6858   88.7699   10.1176 C.3     1  UNL1        0.0574
     11 N          62.8207   90.1760   14.6415 N.pl3   1  UNL1       -0.2825
     12 H          62.0685   90.3401   15.2551 H       1  UNL1        0.1551
     13 C          64.1115   90.9184   14.8219 C.ar    1  UNL1        0.0505
     14 C          64.3997   91.6178   16.1173 C.ar    1  UNL1        0.0154
     15 C          65.6906   92.3602   16.2977 C.ar    1  UNL1        0.0115
     16 C          66.6931   92.4034   15.1827 C.ar    1  UNL1        0.0685
     17 C          66.4048   91.7041   13.8874 C.ar    1  UNL1        0.0115
     18 C          65.1140   90.9616   13.7070 C.ar    1  UNL1        0.0154
     19 C          67.9839   93.1459   15.3631 C.1     1  UNL1        0.1004
     20 N          69.2747   93.8883   15.5434 N.1     1  UNL1       -0.1908
     21 O          64.0872   85.6267   12.4736 O.3     1  UNL1       -0.4369
     22 C          63.0826   85.1498   15.2599 C.3     1  UNL1        0.0342
     23 C          62.8946   84.1002   14.2050 C.ar    1  UNL1        0.0124
     24 C          62.2044   82.8121   14.5432 C.ar    1  UNL1       -0.0012
     25 C          62.0164   81.7624   13.4883 C.ar    1  UNL1        0.0003
     26 C          62.5187   82.0008   12.0951 C.ar    1  UNL1       -0.0012
     27 C          63.2089   83.2889   11.7569 C.ar    1  UNL1        0.0124
     28 C          63.7112   83.5273   10.3637 C.3     1  UNL1        0.0342
     29 C          63.3969   84.3386   12.8118 C.ar    1  UNL1        0.1391
     30 C          61.3262   80.4744   13.8265 C.2     1  UNL1        0.0109
     31 C          59.8660   80.4736   14.1698 C.2     1  UNL1        0.0780
     32 C          59.1757   79.1855   14.5081 C.1     1  UNL1        0.1011
     33 N          58.4856   77.8974   14.8463 N.1     1  UNL1       -0.1908
@<TRIPOS>BOND
     1    22    23    1
     2    23    24   ar
     3    24    25   ar
     4    25    30    1
     5    30    31    2
     6    31    32    1
     7    32    33    3
     8    25    26   ar
     9    26    27   ar
    10    27    28    1
    11    27    29   ar
    12    29    21    1
    13    21     1    1
    14     1     2   ar
    15     2     3   ar
    16     3    11    1
    17    11    13    1
    18    13    14   ar
    19    14    15   ar
    20    15    16   ar
    21    16    19    1
    22    19    20    3
    23    16    17   ar
    24    17    18   ar
    25     3     4   ar
    26     4     5   ar
    27     5     6   ar
    28     6     7    1
    29     7     8    1
    30     8     9    1
    31     9    10    1
    32    29    23   ar
    33     6     1   ar
    34    18    13   ar
    35    10     5    1
    36    11    12    1
@<TRIPOS>MOLECULE
*****
 33 36 0 0 0
SMALL
GASTEIGER

@<TRIPOS>ATOM
      1 C          61.8411   87.9122   11.6099 C.ar    1  UNL1        0.2298
      2 N          62.6738   86.8501   12.2643 N.ar    1  UNL1       -0.1786
      3 C          62.7684   85.4856   11.6483 C.ar    1  UNL1        0.2229
      4 N          62.0302   85.1834   10.3780 N.ar    1  UNL1       -0.2180
      5 C          61.1974   86.2456    9.7236 C.ar    1  UNL1        0.0641
      6 C          61.1028   87.6100   10.3395 C.ar    1  UNL1        0.0559
      7 C          60.2701   88.6722    9.6852 C.3     1  UNL1        0.0897
      8 S          59.5319   88.3699    8.4149 S.3     1  UNL1       -0.1348
      9 C          59.6265   87.0055    7.7990 C.3     1  UNL1        0.0642
     10 C          60.4592   85.9433    8.4533 C.3     1  UNL1        0.0574
     11 N          63.6012   84.4234   12.3028 N.pl3   1  UNL1       -0.2825
     12 H          64.2707   84.6709   12.9809 H       1  UNL1        0.1551
     13 C          63.4141   82.9842   11.9239 C.ar    1  UNL1        0.0505
     14 C          62.8280   82.0189   12.9113 C.ar    1  UNL1        0.0154
     15 C          62.6409   80.5796   12.5325 C.ar    1  UNL1        0.0115
     16 C          63.0397   80.1057   11.1663 C.ar    1  UNL1        0.0685
     17 C          63.6258   81.0710   10.1790 C.ar    1  UNL1        0.0115
     18 C          63.8129   82.5102   10.5579 C.ar    1  UNL1        0.0154
     19 C          62.8526   78.6664   10.7875 C.1     1  UNL1        0.1004
     20 N          62.6654   77.2271   10.4086 N.1     1  UNL1       -0.1908
     21 O          61.7465   89.2767   12.2258 O.3     1  UNL1       -0.4369
     22 C          61.8817   90.7040    9.5906 C.3     1  UNL1        0.0342
     23 C          62.8924   91.0025   10.6580 C.ar    1  UNL1        0.0124
     24 C          63.9707   92.0148   10.4078 C.ar    1  UNL1       -0.0012
     25 C          64.9814   92.3134   11.4751 C.ar    1  UNL1        0.0003
     26 C          64.9138   91.5998   12.7928 C.ar    1  UNL1       -0.0012
     27 C          63.8355   90.5875   13.0430 C.ar    1  UNL1        0.0124
     28 C          63.7679   89.8739   14.3606 C.3     1  UNL1        0.0342
     29 C          62.8248   90.2889   11.9756 C.ar    1  UNL1        0.1391
     30 C          66.0597   93.3256   11.2249 C.2     1  UNL1        0.0109
     31 C          65.7839   94.5156   10.3543 C.2     1  UNL1        0.0780
     32 C          66.8623   95.5278   10.1040 C.1     1  UNL1        0.1011
     33 N          67.9406   96.5400    9.8538 N.1     1  UNL1       -0.1908
@<TRIPOS>BOND
     1    22    23    1
     2    23    24   ar
     3    24    25   ar
     4    25    30    1
     5    30    31    2
     6    31    32    1
     7    32    33    3
     8    25    26   ar
     9    26    27   ar
    10    27    28    1
    11    27    29   ar
    12    29    21    1
    13    21     1    1
    14     1     2   ar
    15     2     3   ar
    16     3    11    1
    17    11    13    1
    18    13    14   ar
    19    14    15   ar
    20    15    16   ar
    21    16    19    1
    22    19    20    3
    23    16    17   ar
    24    17    18   ar
    25     3     4   ar
    26     4     5   ar
    27     5     6   ar
    28     6     7    1
    29     7     8    1
    30     8     9    1
    31     9    10    1
    32    29    23   ar
    33     6     1   ar
    34    18    13   ar
    35    10     5    1
    36    11    12    1
