@<TRIPOS>MOLECULE
*****
 38 41 0 0 0
SMALL
GASTEIGER

@<TRIPOS>ATOM
      1 C          62.3598   89.7597   12.2795 C.ar    1  UNL1        0.0856
      2 N          61.1891   90.6407   11.9577 N.ar    1  UNL1       -0.2142
      3 C          59.9410   90.0466   11.3754 C.ar    1  UNL1        0.2134
      4 N          58.7704   90.9276   11.0536 N.pl3   1  UNL1       -0.3275
      5 N          59.8634   88.5714   11.1150 N.ar    1  UNL1       -0.2169
      6 C          61.0340   87.6904   11.4368 C.ar    1  UNL1        0.0810
      7 C          62.2822   88.2845   12.0190 C.ar    1  UNL1        0.0309
      8 C          63.2680   87.1744   12.2326 C.3     1  UNL1        0.1248
      9 N          62.6291   85.8941   11.7824 N.am    1  UNL1       -0.2543
     10 C          63.2601   84.5338   11.8178 C.2     1  UNL1        0.3047
     11 O          64.6566   84.3681   12.3397 O.2     1  UNL1       -0.2526
     12 N          62.4947   83.3391   11.3312 N.am    1  UNL1       -0.2813
     13 C          61.2484   86.2130   11.2905 C.3     1  UNL1        0.1409
     14 H          58.8213   91.8958   11.2246 H       1  UNL1        0.1452
     15 H          57.9512   90.5376   10.6715 H       1  UNL1        0.1452
     16 H          61.5782   83.4477   10.9886 H       1  UNL1        0.1512
     17 C          63.9998   91.6840   10.6647 C.3     1  UNL1        0.0312
     18 C          64.4279   91.3160   12.0544 C.ar    1  UNL1       -0.0166
     19 C          65.6760   91.9102   12.6368 C.ar    1  UNL1        0.0074
     20 C          66.1042   91.5422   14.0265 C.ar    1  UNL1        0.0604
     21 CL         67.3523   92.1364   14.6088 Cl      1  UNL1       -0.0822
     22 C          65.2842   90.5801   14.8339 C.ar    1  UNL1        0.0483
     23 C          64.0361   89.9859   14.2515 C.ar    1  UNL1        0.1405
     24 C          63.6080   90.3539   12.8618 C.ar    1  UNL1        0.0476
     25 O          63.2161   89.0238   15.0589 O.3     1  UNL1       -0.4732
     26 C          63.1882   89.1334   16.5546 C.3     1  UNL1        0.2316
     27 C          63.0323   87.9002   17.3943 C.3     1  UNL1        0.1747
     28 N          62.9748   86.5508   16.7419 N.ar    1  UNL1       -0.2432
     29 C          64.1384   85.7999   16.1656 C.ar    1  UNL1        0.1264
     30 C          63.6264   84.5004   15.6187 C.ar    1  UNL1        0.1796
     31 F          64.4499   83.4393   14.9507 F       1  UNL1       -0.2008
     32 C          62.1464   84.4482   15.8570 C.ar    1  UNL1        0.1512
     33 N          61.7437   85.7154   16.5512 N.ar    1  UNL1       -0.1651
     34 C          63.1258   81.9787   11.3666 C.3     1  UNL1        0.1951
     35 C          62.6125   80.9384   12.3176 C.3     1  UNL1        0.4155
     36 F          62.0992   79.8981   13.2685 F       1  UNL1       -0.1682
     37 F          62.7873   79.8872   11.2619 F       1  UNL1       -0.1682
     38 F          62.4377   81.9896   13.3733 F       1  UNL1       -0.1682
@<TRIPOS>BOND
     1    17    18    1
     2    18    19   ar
     3    19    20   ar
     4    20    21    1
     5    20    22   ar
     6    22    23   ar
     7    23    25    1
     8    25    26    1
     9    26    27    1
    10    27    28    1
    11    28    29   ar
    12    29    30   ar
    13    30    31    1
    14    30    32   ar
    15    32    33   ar
    16    23    24   ar
    17    24     1    1
    18     1     2   ar
    19     2     3   ar
    20     3     4    1
    21     3     5   ar
    22     5     6   ar
    23     6     7   ar
    24     7     8    1
    25     8     9    1
    26     9    10   am
    27    10    11    2
    28    10    12   am
    29    12    34    1
    30    34    35    1
    31    35    36    1
    32    35    37    1
    33    35    38    1
    34     9    13    1
    35    24    18   ar
    36     7     1   ar
    37    33    28   ar
    38    13     6    1
    39     4    14    1
    40     4    15    1
    41    12    16    1
@<TRIPOS>MOLECULE
*****
 38 41 0 0 0
SMALL
GASTEIGER

@<TRIPOS>ATOM
      1 C          64.2169   90.1509   13.7793 C.ar    1  UNL1        0.0856
      2 N          65.3817   91.0837   13.9315 N.ar    1  UNL1       -0.2142
      3 C          65.7712   91.9881   12.8000 C.ar    1  UNL1        0.2134
      4 N          66.9360   92.9209   12.9523 N.pl3   1  UNL1       -0.3275
      5 N          64.9959   91.9597   11.5162 N.ar    1  UNL1       -0.2169
      6 C          63.8312   91.0269   11.3639 C.ar    1  UNL1        0.0810
      7 C          63.4416   90.1225   12.4955 C.ar    1  UNL1        0.0309
      8 C          62.2560   89.3152   12.0566 C.3     1  UNL1        0.1248
      9 N          61.9128   89.7207   10.6538 N.am    1  UNL1       -0.2543
     10 C          60.7927   89.1658    9.8247 C.2     1  UNL1        0.3047
     11 O          59.8953   88.1051   10.3900 O.2     1  UNL1       -0.2526
     12 N          60.5700   89.6715    8.4302 N.am    1  UNL1       -0.2813
     13 C          62.8863   90.7786   10.2257 C.3     1  UNL1        0.1409
     14 H          67.4448   92.9396   13.7949 H       1  UNL1        0.1452
     15 H          67.1916   93.5145   12.2096 H       1  UNL1        0.1452
     16 H          61.1590   90.3677    8.0591 H       1  UNL1        0.1512
     17 C          63.5301   91.3116   16.4591 C.3     1  UNL1        0.0312
     18 C          63.4840   89.8269   16.2507 C.ar    1  UNL1       -0.0166
     19 C          63.0946   88.9224   17.3822 C.ar    1  UNL1        0.0074
     20 C          63.0485   87.4377   17.1738 C.ar    1  UNL1        0.0604
     21 CL         62.6590   86.5332   18.3053 Cl      1  UNL1       -0.0822
     22 C          63.3918   86.8573   15.8340 C.ar    1  UNL1        0.0483
     23 C          63.7813   87.7618   14.7025 C.ar    1  UNL1        0.1405
     24 C          63.8274   89.2465   14.9109 C.ar    1  UNL1        0.0476
     25 O          64.1246   87.1815   13.3626 O.3     1  UNL1       -0.4732
     26 C          63.5412   85.8646   12.9438 C.3     1  UNL1        0.2316
     27 C          64.1738   84.5841   13.4023 C.3     1  UNL1        0.1747
     28 N          63.4032   83.2991   13.3308 N.ar    1  UNL1       -0.2432
     29 C          62.3185   82.8680   14.2729 C.ar    1  UNL1        0.1264
     30 C          61.8270   81.5222   13.8290 C.ar    1  UNL1        0.1796
     31 F          60.7445   80.7181   14.4862 F       1  UNL1       -0.2008
     32 C          62.6080   81.1215   12.6127 C.ar    1  UNL1        0.1512
     33 N          63.5821   82.2198   12.3048 N.ar    1  UNL1       -0.1651
     34 C          59.4499   89.1165    7.6011 C.3     1  UNL1        0.1951
     35 C          59.0431   89.8058    6.3325 C.3     1  UNL1        0.4155
     36 F          58.6362   90.4951    5.0639 F       1  UNL1       -0.1682
     37 F          57.6093   89.4581    6.6034 F       1  UNL1       -0.1682
     38 F          60.4769   90.1536    6.0616 F       1  UNL1       -0.1682
@<TRIPOS>BOND
     1    17    18    1
     2    18    19   ar
     3    19    20   ar
     4    20    21    1
     5    20    22   ar
     6    22    23   ar
     7    23    25    1
     8    25    26    1
     9    26    27    1
    10    27    28    1
    11    28    29   ar
    12    29    30   ar
    13    30    31    1
    14    30    32   ar
    15    32    33   ar
    16    23    24   ar
    17    24     1    1
    18     1     2   ar
    19     2     3   ar
    20     3     4    1
    21     3     5   ar
    22     5     6   ar
    23     6     7   ar
    24     7     8    1
    25     8     9    1
    26     9    10   am
    27    10    11    2
    28    10    12   am
    29    12    34    1
    30    34    35    1
    31    35    36    1
    32    35    37    1
    33    35    38    1
    34     9    13    1
    35    24    18   ar
    36     7     1   ar
    37    33    28   ar
    38    13     6    1
    39     4    14    1
    40     4    15    1
    41    12    16    1
@<TRIPOS>MOLECULE
*****
 38 41 0 0 0
SMALL
GASTEIGER

@<TRIPOS>ATOM
      1 C          62.2692   86.6286   12.1065 C.ar    1  UNL1        0.0856
      2 N          62.1297   85.2695   12.7259 N.ar    1  UNL1       -0.2142
      3 C          62.8367   84.9548   14.0108 C.ar    1  UNL1        0.2134
      4 N          62.6973   83.5957   14.6302 N.pl3   1  UNL1       -0.3275
      5 N          63.6833   85.9990   14.6763 N.ar    1  UNL1       -0.2169
      6 C          63.8228   87.3580   14.0570 C.ar    1  UNL1        0.0810
      7 C          63.1157   87.6728   12.7721 C.ar    1  UNL1        0.0309
      8 C          63.4386   89.0897   12.4003 C.3     1  UNL1        0.1248
      9 N          64.3453   89.6505   13.4555 N.am    1  UNL1       -0.2543
     10 C          64.9146   91.0380   13.4822 C.2     1  UNL1        0.3047
     11 O          64.5869   92.0044   12.3828 O.2     1  UNL1       -0.2526
     12 N          65.8116   91.4592   14.6083 N.am    1  UNL1       -0.2813
     13 C          64.5827   88.5803   14.4794 C.3     1  UNL1        0.1409
     14 H          62.1417   82.9103   14.1934 H       1  UNL1        0.1452
     15 H          63.1613   83.3891   15.4735 H       1  UNL1        0.1452
     16 H          66.0266   90.8249   15.3299 H       1  UNL1        0.1512
     17 C          59.8618   88.4188   12.1186 C.3     1  UNL1        0.0312
     18 C          60.3584   87.8384   10.8276 C.ar    1  UNL1       -0.0166
     19 C          59.6514   88.1531    9.5427 C.ar    1  UNL1        0.0074
     20 C          60.1480   87.5727    8.2518 C.ar    1  UNL1        0.0604
     21 CL         59.4410   87.8874    6.9668 Cl      1  UNL1       -0.0822
     22 C          61.3517   86.6776    8.2457 C.ar    1  UNL1        0.0483
     23 C          62.0587   86.3629    9.5307 C.ar    1  UNL1        0.1405
     24 C          61.5621   86.9433   10.8216 C.ar    1  UNL1        0.0476
     25 O          63.2623   85.4679    9.5247 O.3     1  UNL1       -0.4732
     26 C          63.0923   83.9816    9.6348 C.3     1  UNL1        0.2316
     27 C          64.1764   83.1460   10.2485 C.3     1  UNL1        0.1747
     28 N          63.8604   82.2317   11.3949 N.ar    1  UNL1       -0.2432
     29 C          62.7302   81.2472   11.4517 C.ar    1  UNL1        0.1264
     30 C          62.7905   80.5483   12.7776 C.ar    1  UNL1        0.1796
     31 F          61.8486   79.4838   13.2568 F       1  UNL1       -0.2008
     32 C          63.9580   81.1009   13.5401 C.ar    1  UNL1        0.1512
     33 N          64.6193   82.1413   12.6855 N.ar    1  UNL1       -0.1651
     34 C          66.3808   92.8467   14.6349 C.3     1  UNL1        0.1951
     35 C          67.8498   93.0505   14.8599 C.3     1  UNL1        0.4155
     36 F          69.3187   93.2542   15.0849 F       1  UNL1       -0.1682
     37 F          67.5482   93.9023   16.0572 F       1  UNL1       -0.1682
     38 F          68.1514   92.1986   13.6626 F       1  UNL1       -0.1682
@<TRIPOS>BOND
     1    17    18    1
     2    18    19   ar
     3    19    20   ar
     4    20    21    1
     5    20    22   ar
     6    22    23   ar
     7    23    25    1
     8    25    26    1
     9    26    27    1
    10    27    28    1
    11    28    29   ar
    12    29    30   ar
    13    30    31    1
    14    30    32   ar
    15    32    33   ar
    16    23    24   ar
    17    24     1    1
    18     1     2   ar
    19     2     3   ar
    20     3     4    1
    21     3     5   ar
    22     5     6   ar
    23     6     7   ar
    24     7     8    1
    25     8     9    1
    26     9    10   am
    27    10    11    2
    28    10    12   am
    29    12    34    1
    30    34    35    1
    31    35    36    1
    32    35    37    1
    33    35    38    1
    34     9    13    1
    35    24    18   ar
    36     7     1   ar
    37    33    28   ar
    38    13     6    1
    39     4    14    1
    40     4    15    1
    41    12    16    1
@<TRIPOS>MOLECULE
*****
 38 41 0 0 0
SMALL
GASTEIGER

@<TRIPOS>ATOM
      1 C          63.2240   89.7307   13.1361 C.ar    1  UNL1        0.0856
      2 N          62.9098   89.4560   14.5770 N.ar    1  UNL1       -0.2142
      3 C          63.4672   90.3449   15.6488 C.ar    1  UNL1        0.2134
      4 N          63.1531   90.0702   17.0896 N.pl3   1  UNL1       -0.3275
      5 N          64.3387   91.5087   15.2799 N.ar    1  UNL1       -0.2169
      6 C          64.6529   91.7835   13.8392 C.ar    1  UNL1        0.0810
      7 C          64.0955   90.8945   12.7673 C.ar    1  UNL1        0.0309
      8 C          64.5742   91.4096   11.4423 C.3     1  UNL1        0.1248
      9 N          65.4275   92.6170   11.6954 N.am    1  UNL1       -0.2543
     10 C          66.1121   93.4475   10.6506 C.2     1  UNL1        0.3047
     11 O          65.9717   93.0929    9.1999 O.2     1  UNL1       -0.2526
     12 N          66.9371   94.6327   11.0565 N.am    1  UNL1       -0.2813
     13 C          65.4762   92.8481   13.1767 C.3     1  UNL1        0.1409
     14 H          62.5811   89.3064   17.3318 H       1  UNL1        0.1452
     15 H          63.5190   90.6537   17.7931 H       1  UNL1        0.1452
     16 H          67.0293   94.8655   12.0086 H       1  UNL1        0.1512
     17 C          61.4899   90.8879   10.9787 C.3     1  UNL1        0.0312
     18 C          61.7995   89.4202   10.9856 C.ar    1  UNL1       -0.0166
     19 C          61.2421   88.5311    9.9138 C.ar    1  UNL1        0.0074
     20 C          61.5517   87.0634    9.9207 C.ar    1  UNL1        0.0604
     21 CL         60.9943   86.1743    8.8489 Cl      1  UNL1       -0.0822
     22 C          62.4187   86.4848   10.9993 C.ar    1  UNL1        0.0483
     23 C          62.9761   87.3739   12.0711 C.ar    1  UNL1        0.1405
     24 C          62.6665   88.8416   12.0642 C.ar    1  UNL1        0.0476
     25 O          63.8431   86.7954   13.1498 O.3     1  UNL1       -0.4732
     26 C          63.4510   85.5116   13.8193 C.3     1  UNL1        0.2316
     27 C          64.1386   84.2313   13.4475 C.3     1  UNL1        0.1747
     28 N          63.4101   82.9258   13.5696 N.ar    1  UNL1       -0.2432
     29 C          62.0202   82.7382   14.1014 C.ar    1  UNL1        0.1264
     30 C          61.6947   81.2752   14.0418 C.ar    1  UNL1        0.1796
     31 F          60.4065   80.6401   14.4748 F       1  UNL1       -0.2008
     32 C          62.8835   80.5586   13.4732 C.ar    1  UNL1        0.1512
     33 N          63.9437   81.5788   13.1814 N.ar    1  UNL1       -0.1651
     34 C          67.6216   95.4632   10.0116 C.3     1  UNL1        0.1951
     35 C          66.8122   96.1588    8.9576 C.3     1  UNL1        0.4155
     36 F          66.0027   96.8544    7.9036 F       1  UNL1       -0.1682
     37 F          66.0174   96.8511   10.0249 F       1  UNL1       -0.1682
     38 F          67.6069   95.4665    7.8903 F       1  UNL1       -0.1682
@<TRIPOS>BOND
     1    17    18    1
     2    18    19   ar
     3    19    20   ar
     4    20    21    1
     5    20    22   ar
     6    22    23   ar
     7    23    25    1
     8    25    26    1
     9    26    27    1
    10    27    28    1
    11    28    29   ar
    12    29    30   ar
    13    30    31    1
    14    30    32   ar
    15    32    33   ar
    16    23    24   ar
    17    24     1    1
    18     1     2   ar
    19     2     3   ar
    20     3     4    1
    21     3     5   ar
    22     5     6   ar
    23     6     7   ar
    24     7     8    1
    25     8     9    1
    26     9    10   am
    27    10    11    2
    28    10    12   am
    29    12    34    1
    30    34    35    1
    31    35    36    1
    32    35    37    1
    33    35    38    1
    34     9    13    1
    35    24    18   ar
    36     7     1   ar
    37    33    28   ar
    38    13     6    1
    39     4    14    1
    40     4    15    1
    41    12    16    1
@<TRIPOS>MOLECULE
*****
 38 41 0 0 0
SMALL
GASTEIGER

@<TRIPOS>ATOM
      1 C          62.5074   86.6786   12.1003 C.ar    1  UNL1        0.0856
      2 N          62.5438   85.4421   12.9487 N.ar    1  UNL1       -0.2142
      3 C          63.3224   85.4348   14.2307 C.ar    1  UNL1        0.2134
      4 N          63.3588   84.1983   15.0792 N.pl3   1  UNL1       -0.3275
      5 N          64.0647   86.6639   14.6644 N.ar    1  UNL1       -0.2169
      6 C          64.0284   87.9004   13.8160 C.ar    1  UNL1        0.0810
      7 C          63.2497   87.9078   12.5339 C.ar    1  UNL1        0.0309
      8 C          63.3968   89.2639   11.9100 C.3     1  UNL1        0.1248
      9 N          64.2663   90.0947   12.8064 N.am    1  UNL1       -0.2543
     10 C          64.6740   91.5182   12.5670 C.2     1  UNL1        0.3047
     11 O          64.2034   92.2364   11.3370 O.2     1  UNL1       -0.2526
     12 N          65.5521   92.2237   13.5575 N.am    1  UNL1       -0.2813
     13 C          64.6567   89.2521   13.9844 C.3     1  UNL1        0.1409
     14 H          62.8715   83.3915   14.7946 H       1  UNL1        0.1452
     15 H          63.8698   84.1935   15.9206 H       1  UNL1        0.1452
     16 H          65.8609   91.7524   14.3648 H       1  UNL1        0.1512
     17 C          59.9604   88.2513   11.9010 C.3     1  UNL1        0.0312
     18 C          60.4552   87.4722   10.7186 C.ar    1  UNL1       -0.0166
     19 C          59.6766   87.4794    9.4366 C.ar    1  UNL1        0.0074
     20 C          60.1715   86.7002    8.2542 C.ar    1  UNL1        0.0604
     21 CL         59.3928   86.7074    6.9721 Cl      1  UNL1       -0.0822
     22 C          61.4449   85.9139    8.3537 C.ar    1  UNL1        0.0483
     23 C          62.2235   85.9067    9.6358 C.ar    1  UNL1        0.1405
     24 C          61.7287   86.6858   10.8182 C.ar    1  UNL1        0.0476
     25 O          63.4970   85.1204    9.7355 O.3     1  UNL1       -0.4732
     26 C          63.4473   83.6318    9.9129 C.3     1  UNL1        0.2316
     27 C          64.2897   82.9732   10.9650 C.3     1  UNL1        0.1747
     28 N          63.6376   82.2003   12.0728 N.ar    1  UNL1       -0.2432
     29 C          62.1661   81.9549   12.2291 C.ar    1  UNL1        0.1264
     30 C          61.9615   81.1401   13.4717 C.ar    1  UNL1        0.1796
     31 F          60.6432   80.6666   14.0085 F       1  UNL1       -0.2008
     32 C          63.3065   80.8820   14.0834 C.ar    1  UNL1        0.1512
     33 N          64.3424   81.5373   13.2188 N.ar    1  UNL1       -0.1651
     34 C          65.9597   93.6473   13.3180 C.3     1  UNL1        0.1951
     35 C          66.5945   94.0366   12.0160 C.3     1  UNL1        0.4155
     36 F          67.2294   94.4260   10.7139 F       1  UNL1       -0.1682
     37 F          65.9140   95.3717   12.0834 F       1  UNL1       -0.1682
     38 F          67.2751   92.7016   11.9485 F       1  UNL1       -0.1682
@<TRIPOS>BOND
     1    17    18    1
     2    18    19   ar
     3    19    20   ar
     4    20    21    1
     5    20    22   ar
     6    22    23   ar
     7    23    25    1
     8    25    26    1
     9    26    27    1
    10    27    28    1
    11    28    29   ar
    12    29    30   ar
    13    30    31    1
    14    30    32   ar
    15    32    33   ar
    16    23    24   ar
    17    24     1    1
    18     1     2   ar
    19     2     3   ar
    20     3     4    1
    21     3     5   ar
    22     5     6   ar
    23     6     7   ar
    24     7     8    1
    25     8     9    1
    26     9    10   am
    27    10    11    2
    28    10    12   am
    29    12    34    1
    30    34    35    1
    31    35    36    1
    32    35    37    1
    33    35    38    1
    34     9    13    1
    35    24    18   ar
    36     7     1   ar
    37    33    28   ar
    38    13     6    1
    39     4    14    1
    40     4    15    1
    41    12    16    1
@<TRIPOS>MOLECULE
*****
 38 41 0 0 0
SMALL
GASTEIGER

@<TRIPOS>ATOM
      1 C          62.7385   86.7300   11.4219 C.ar    1  UNL1        0.0856
      2 N          63.4701   87.3496   12.5757 N.ar    1  UNL1       -0.2142
      3 C          63.3897   88.8294   12.8071 C.ar    1  UNL1        0.2134
      4 N          64.1212   89.4489   13.9609 N.pl3   1  UNL1       -0.3275
      5 N          62.5778   89.6897   11.8848 N.ar    1  UNL1       -0.2169
      6 C          61.8463   89.0702   10.7311 C.ar    1  UNL1        0.0810
      7 C          61.9266   87.5904   10.4997 C.ar    1  UNL1        0.0309
      8 C          61.1040   87.2653    9.2883 C.3     1  UNL1        0.1248
      9 N          60.5152   88.5442    8.7710 N.am    1  UNL1       -0.2543
     10 C          59.6241   88.6833    7.5724 C.2     1  UNL1        0.3047
     11 O          59.2481   87.4713    6.7727 O.2     1  UNL1       -0.2526
     12 N          59.1089   90.0344    7.1736 N.am    1  UNL1       -0.2813
     13 C          60.9739   89.6598    9.6627 C.3     1  UNL1        0.1409
     14 H          64.6541   88.8843   14.5662 H       1  UNL1        0.1452
     15 H          64.0685   90.4202   14.1127 H       1  UNL1        0.1452
     16 H          59.3557   90.8299    7.6984 H       1  UNL1        0.1512
     17 C          63.4873   85.6733    8.7158 C.3     1  UNL1        0.0312
     18 C          63.1933   84.7218    9.8375 C.ar    1  UNL1       -0.0166
     19 C          63.2737   83.2419    9.6063 C.ar    1  UNL1        0.0074
     20 C          62.9797   82.2904   10.7280 C.ar    1  UNL1        0.0604
     21 CL         63.0601   80.8105   10.4967 Cl      1  UNL1       -0.0822
     22 C          62.6053   82.8187   12.0810 C.ar    1  UNL1        0.0483
     23 C          62.5249   84.2986   12.3123 C.ar    1  UNL1        0.1405
     24 C          62.8189   85.2501   11.1906 C.ar    1  UNL1        0.0476
     25 O          62.1506   84.8270   13.6652 O.3     1  UNL1       -0.4732
     26 C          62.3373   83.9709   14.8827 C.3     1  UNL1        0.2316
     27 C          63.2971   84.3920   15.9558 C.3     1  UNL1        0.1747
     28 N          63.1011   85.6980   16.6671 N.ar    1  UNL1       -0.2432
     29 C          63.5354   87.0456   16.1717 C.ar    1  UNL1        0.1264
     30 C          63.1392   88.0662   17.1970 C.ar    1  UNL1        0.1796
     31 F          63.3798   89.5441   17.1088 F       1  UNL1       -0.2008
     32 C          62.4600   87.3493   18.3261 C.ar    1  UNL1        0.1512
     33 N          62.4365   85.8857   17.9986 N.ar    1  UNL1       -0.1651
     34 C          58.2178   90.1734    5.9749 C.3     1  UNL1        0.1951
     35 C          58.4703   91.2626    4.9750 C.3     1  UNL1        0.4155
     36 F          58.7227   92.3518    3.9751 F       1  UNL1       -0.1682
     37 F          59.9485   91.0557    5.1228 F       1  UNL1       -0.1682
     38 F          56.9919   91.4696    4.8272 F       1  UNL1       -0.1682
@<TRIPOS>BOND
     1    17    18    1
     2    18    19   ar
     3    19    20   ar
     4    20    21    1
     5    20    22   ar
     6    22    23   ar
     7    23    25    1
     8    25    26    1
     9    26    27    1
    10    27    28    1
    11    28    29   ar
    12    29    30   ar
    13    30    31    1
    14    30    32   ar
    15    32    33   ar
    16    23    24   ar
    17    24     1    1
    18     1     2   ar
    19     2     3   ar
    20     3     4    1
    21     3     5   ar
    22     5     6   ar
    23     6     7   ar
    24     7     8    1
    25     8     9    1
    26     9    10   am
    27    10    11    2
    28    10    12   am
    29    12    34    1
    30    34    35    1
    31    35    36    1
    32    35    37    1
    33    35    38    1
    34     9    13    1
    35    24    18   ar
    36     7     1   ar
    37    33    28   ar
    38    13     6    1
    39     4    14    1
    40     4    15    1
    41    12    16    1
@<TRIPOS>MOLECULE
*****
 38 41 0 0 0
SMALL
GASTEIGER

@<TRIPOS>ATOM
      1 C          61.8972   86.5572   10.6094 C.ar    1  UNL1        0.0856
      2 N          60.7801   86.7047    9.6192 N.ar    1  UNL1       -0.2142
      3 C          60.0972   88.0294    9.4507 C.ar    1  UNL1        0.2134
      4 N          58.9801   88.1769    8.4605 N.pl3   1  UNL1       -0.3275
      5 N          60.5313   89.2069   10.2724 N.ar    1  UNL1       -0.2169
      6 C          61.6484   89.0595   11.2625 C.ar    1  UNL1        0.0810
      7 C          62.3313   87.7347   11.4310 C.ar    1  UNL1        0.0309
      8 C          63.3942   87.8909   12.4780 C.3     1  UNL1        0.1248
      9 N          63.3680   89.3122   12.9565 N.am    1  UNL1       -0.2543
     10 C          64.2636   89.9070   14.0025 C.2     1  UNL1        0.3047
     11 O          65.3029   89.0570   14.6715 O.2     1  UNL1       -0.2526
     12 N          64.1200   91.3517   14.3796 N.am    1  UNL1       -0.2813
     13 C          62.2891   90.0345   12.2053 C.3     1  UNL1        0.1409
     14 H          58.6951   87.4041    7.9213 H       1  UNL1        0.1452
     15 H          58.5318   89.0464    8.3500 H       1  UNL1        0.1452
     16 H          63.4379   91.9096   13.9406 H       1  UNL1        0.1512
     17 C          63.2155   85.2395    8.2587 C.3     1  UNL1        0.0312
     18 C          63.2393   84.5735    9.6025 C.ar    1  UNL1       -0.0166
     19 C          63.9221   83.2486    9.7711 C.ar    1  UNL1        0.0074
     20 C          63.9459   82.5827   11.1149 C.ar    1  UNL1        0.0604
     21 CL         64.6288   81.2578   11.2834 Cl      1  UNL1       -0.0822
     22 C          63.2868   83.2415   12.2902 C.ar    1  UNL1        0.0483
     23 C          62.6039   84.5664   12.1217 C.ar    1  UNL1        0.1405
     24 C          62.5802   85.2323   10.7779 C.ar    1  UNL1        0.0476
     25 O          61.9448   85.2253   13.2970 O.3     1  UNL1       -0.4732
     26 C          61.7091   84.4478   14.5579 C.3     1  UNL1        0.2316
     27 C          62.6924   84.5342   15.6874 C.3     1  UNL1        0.1747
     28 N          62.7479   85.7665   16.5409 N.ar    1  UNL1       -0.2432
     29 C          63.2216   87.1210   16.1039 C.ar    1  UNL1        0.1264
     30 C          63.1060   88.0522   17.2741 C.ar    1  UNL1        0.1796
     31 F          63.4713   89.5070   17.2826 F       1  UNL1       -0.2008
     32 C          62.5608   87.2732   18.4342 C.ar    1  UNL1        0.1512
     33 N          62.3396   85.8606   17.9811 N.ar    1  UNL1       -0.1651
     34 C          65.0156   91.9463   15.4257 C.3     1  UNL1        0.1951
     35 C          66.2295   92.7274   15.0177 C.3     1  UNL1        0.4155
     36 F          67.4434   93.5084   14.6098 F       1  UNL1       -0.1682
     37 F          66.7415   92.6674   16.4264 F       1  UNL1       -0.1682
     38 F          65.7175   92.7874   13.6090 F       1  UNL1       -0.1682
@<TRIPOS>BOND
     1    17    18    1
     2    18    19   ar
     3    19    20   ar
     4    20    21    1
     5    20    22   ar
     6    22    23   ar
     7    23    25    1
     8    25    26    1
     9    26    27    1
    10    27    28    1
    11    28    29   ar
    12    29    30   ar
    13    30    31    1
    14    30    32   ar
    15    32    33   ar
    16    23    24   ar
    17    24     1    1
    18     1     2   ar
    19     2     3   ar
    20     3     4    1
    21     3     5   ar
    22     5     6   ar
    23     6     7   ar
    24     7     8    1
    25     8     9    1
    26     9    10   am
    27    10    11    2
    28    10    12   am
    29    12    34    1
    30    34    35    1
    31    35    36    1
    32    35    37    1
    33    35    38    1
    34     9    13    1
    35    24    18   ar
    36     7     1   ar
    37    33    28   ar
    38    13     6    1
    39     4    14    1
    40     4    15    1
    41    12    16    1
@<TRIPOS>MOLECULE
*****
 38 41 0 0 0
SMALL
GASTEIGER

@<TRIPOS>ATOM
      1 C          65.0256   91.4896   14.5012 C.ar    1  UNL1        0.0856
      2 N          64.8628   92.5891   15.5086 N.ar    1  UNL1       -0.2142
      3 C          64.1481   92.3230   16.8002 C.ar    1  UNL1        0.2134
      4 N          63.9852   93.4224   17.8076 N.pl3   1  UNL1       -0.3275
      5 N          63.5961   90.9575   17.0845 N.ar    1  UNL1       -0.2169
      6 C          63.7590   89.8581   16.0772 C.ar    1  UNL1        0.0810
      7 C          64.4737   90.1242   14.7855 C.ar    1  UNL1        0.0309
      8 C          64.4809   88.8529   13.9893 C.3     1  UNL1        0.1248
      9 N          63.7707   87.8012   14.7889 N.am    1  UNL1       -0.2543
     10 C          63.5460   86.3781   14.3715 C.2     1  UNL1        0.3047
     11 O          64.0526   85.8969   13.0441 O.2     1  UNL1       -0.2526
     12 N          62.8147   85.4361   15.2813 N.am    1  UNL1       -0.2813
     13 C          63.3244   88.4224   16.0793 C.3     1  UNL1        0.1409
     14 H          64.3474   94.3187   17.6211 H       1  UNL1        0.1452
     15 H          63.5161   93.2478   18.6554 H       1  UNL1        0.1452
     16 H          62.4822   85.7519   16.1525 H       1  UNL1        0.1512
     17 C          68.0109   91.7857   14.4720 C.3     1  UNL1        0.0312
     18 C          67.2329   91.9038   13.1950 C.ar    1  UNL1       -0.0166
     19 C          67.9476   92.1699   11.9033 C.ar    1  UNL1        0.0074
     20 C          67.1697   92.2880   10.6262 C.ar    1  UNL1        0.0604
     21 CL         67.8843   92.5542    9.3346 Cl      1  UNL1       -0.0822
     22 C          65.6771   92.1400   10.6408 C.ar    1  UNL1        0.0483
     23 C          64.9624   91.8739   11.9325 C.ar    1  UNL1        0.1405
     24 C          65.7404   91.7558   13.2095 C.ar    1  UNL1        0.0476
     25 O          63.4699   91.7259   11.9471 O.3     1  UNL1       -0.4732
     26 C          62.7851   90.9247   10.8797 C.3     1  UNL1        0.2316
     27 C          61.4628   90.2750   11.1615 C.3     1  UNL1        0.1747
     28 N          61.2211   88.8544   10.7451 N.ar    1  UNL1       -0.2432
     29 C          60.5428   88.4086    9.4837 C.ar    1  UNL1        0.1264
     30 C          60.5178   86.9089    9.4760 C.ar    1  UNL1        0.1796
     31 F          59.9326   86.0423    8.4005 F       1  UNL1       -0.2008
     32 C          61.1807   86.4278   10.7326 C.ar    1  UNL1        0.1512
     33 N          61.6154   87.6302   11.5169 N.ar    1  UNL1       -0.1651
     34 C          62.5901   84.0130   14.8638 C.3     1  UNL1        0.1951
     35 C          63.6144   83.3066   14.0261 C.3     1  UNL1        0.4155
     36 F          64.6388   82.6003   13.1884 F       1  UNL1       -0.1682
     37 F          64.5797   83.3455   15.1736 F       1  UNL1       -0.1682
     38 F          62.6492   83.2677   12.8785 F       1  UNL1       -0.1682
@<TRIPOS>BOND
     1    17    18    1
     2    18    19   ar
     3    19    20   ar
     4    20    21    1
     5    20    22   ar
     6    22    23   ar
     7    23    25    1
     8    25    26    1
     9    26    27    1
    10    27    28    1
    11    28    29   ar
    12    29    30   ar
    13    30    31    1
    14    30    32   ar
    15    32    33   ar
    16    23    24   ar
    17    24     1    1
    18     1     2   ar
    19     2     3   ar
    20     3     4    1
    21     3     5   ar
    22     5     6   ar
    23     6     7   ar
    24     7     8    1
    25     8     9    1
    26     9    10   am
    27    10    11    2
    28    10    12   am
    29    12    34    1
    30    34    35    1
    31    35    36    1
    32    35    37    1
    33    35    38    1
    34     9    13    1
    35    24    18   ar
    36     7     1   ar
    37    33    28   ar
    38    13     6    1
    39     4    14    1
    40     4    15    1
    41    12    16    1
@<TRIPOS>MOLECULE
*****
 38 41 0 0 0
SMALL
GASTEIGER

@<TRIPOS>ATOM
      1 C          63.0198   85.1613   12.6906 C.ar    1  UNL1        0.0856
      2 N          62.8738   83.8921   13.4767 N.ar    1  UNL1       -0.2142
      3 C          63.1932   83.8766   14.9421 C.ar    1  UNL1        0.2134
      4 N          63.0472   82.6073   15.7282 N.pl3   1  UNL1       -0.3275
      5 N          63.6585   85.1302   15.6216 N.ar    1  UNL1       -0.2169
      6 C          63.8045   86.3994   14.8356 C.ar    1  UNL1        0.0810
      7 C          63.4851   86.4149   13.3701 C.ar    1  UNL1        0.0309
      8 C          63.7221   87.8050   12.8587 C.3     1  UNL1        0.1248
      9 N          64.1880   88.6486   14.0082 N.am    1  UNL1       -0.2543
     10 C          64.5410   90.1052   13.9467 C.2     1  UNL1        0.3047
     11 O          64.4409   90.8469   12.6468 O.2     1  UNL1       -0.2526
     12 N          64.9940   90.8200   15.1851 N.am    1  UNL1       -0.2813
     13 C          64.2389   87.7799   15.2300 C.3     1  UNL1        0.1409
     14 H          62.7417   81.7845   15.2823 H       1  UNL1        0.1452
     15 H          63.2568   82.5972   16.6901 H       1  UNL1        0.1452
     16 H          65.0597   90.3332   16.0383 H       1  UNL1        0.1512
     17 C          64.5387   83.3894   10.8055 C.3     1  UNL1        0.0312
     18 C          63.4598   84.2908   10.2825 C.ar    1  UNL1       -0.0166
     19 C          63.1404   84.3063    8.8170 C.ar    1  UNL1        0.0074
     20 C          62.0615   85.2077    8.2941 C.ar    1  UNL1        0.0604
     21 CL         61.7421   85.2232    6.8286 Cl      1  UNL1       -0.0822
     22 C          61.3021   86.0936    9.2365 C.ar    1  UNL1        0.0483
     23 C          61.6215   86.0781   10.7021 C.ar    1  UNL1        0.1405
     24 C          62.7004   85.1767   11.2250 C.ar    1  UNL1        0.0476
     25 O          60.8621   86.9640   11.6446 O.3     1  UNL1       -0.4732
     26 C          59.8905   87.9726   11.1073 C.3     1  UNL1        0.2316
     27 C          60.3570   89.0256   10.1462 C.3     1  UNL1        0.1747
     28 N          59.8315   89.0447    8.7414 N.ar    1  UNL1       -0.2432
     29 C          60.1430   90.0757    7.6975 C.ar    1  UNL1        0.1264
     30 C          59.4062   89.7044    6.4448 C.ar    1  UNL1        0.1796
     31 F          59.4318   90.4608    5.1497 F       1  UNL1       -0.2008
     32 C          58.6393   88.4438    6.7146 C.ar    1  UNL1        0.1512
     33 N          58.9022   88.0361    8.1340 N.ar    1  UNL1       -0.1651
     34 C          65.3470   92.2766   15.1236 C.3     1  UNL1        0.1951
     35 C          66.7857   92.7008   15.1355 C.3     1  UNL1        0.4155
     36 F          68.2244   93.1249   15.1474 F       1  UNL1       -0.1682
     37 F          66.7796   92.7637   13.6368 F       1  UNL1       -0.1682
     38 F          66.7919   92.6379   16.6342 F       1  UNL1       -0.1682
@<TRIPOS>BOND
     1    17    18    1
     2    18    19   ar
     3    19    20   ar
     4    20    21    1
     5    20    22   ar
     6    22    23   ar
     7    23    25    1
     8    25    26    1
     9    26    27    1
    10    27    28    1
    11    28    29   ar
    12    29    30   ar
    13    30    31    1
    14    30    32   ar
    15    32    33   ar
    16    23    24   ar
    17    24     1    1
    18     1     2   ar
    19     2     3   ar
    20     3     4    1
    21     3     5   ar
    22     5     6   ar
    23     6     7   ar
    24     7     8    1
    25     8     9    1
    26     9    10   am
    27    10    11    2
    28    10    12   am
    29    12    34    1
    30    34    35    1
    31    35    36    1
    32    35    37    1
    33    35    38    1
    34     9    13    1
    35    24    18   ar
    36     7     1   ar
    37    33    28   ar
    38    13     6    1
    39     4    14    1
    40     4    15    1
    41    12    16    1
