@<TRIPOS>MOLECULE
*****
 33 37 0 0 0
SMALL
GASTEIGER

@<TRIPOS>ATOM
      1 C          63.2572   87.0903   12.7742 C.2     1  UNL1        0.2506
      2 O          63.9007   87.4561   14.0788 O.2     1  UNL1       -0.2699
      3 N          62.7395   88.1657   11.8656 N.am    1  UNL1       -0.2723
      4 C          62.0960   87.7998   10.5610 C.3     1  UNL1        0.1257
      5 C          61.5784   88.8753    9.6524 C.3     1  UNL1        0.1637
      6 O          61.7042   90.3166   10.0485 O.3     1  UNL1       -0.3502
      7 C          62.3477   90.6824   11.3532 C.3     1  UNL1        0.1622
      8 C          62.8653   89.6070   12.2617 C.3     1  UNL1        0.1096
      9 C          62.6943   82.0948   14.0888 C.3     1  UNL1        0.0327
     10 C          62.8499   83.1513   13.0354 C.ar    1  UNL1       -0.0023
     11 C          62.8798   82.7665   11.5859 C.ar    1  UNL1       -0.0027
     12 C          63.0355   83.8229   10.5325 C.ar    1  UNL1       -0.0001
     13 C          63.1613   85.2641   10.9286 C.ar    1  UNL1        0.0061
     14 C          63.1314   85.6490   12.3781 C.ar    1  UNL1        0.0726
     15 C          62.9757   84.5925   13.4315 C.ar    1  UNL1        0.1032
     16 N          62.9458   84.9773   14.8810 N.ar    1  UNL1       -0.1480
     17 N          61.7150   85.1970   15.7097 N.ar    1  UNL1       -0.1447
     18 C          62.1500   85.5655   17.0972 C.ar    1  UNL1        0.1446
     19 C          63.6497   85.5735   17.1259 C.ar    1  UNL1        0.1446
     20 N          64.1415   85.2100   15.7563 N.ar    1  UNL1       -0.1447
     21 C          63.5088   89.9729   13.5663 C.3     1  UNL1        0.0488
     22 C          64.5972   91.0043   13.6026 C.ar    1  UNL1       -0.0181
     23 C          65.2201   91.3917   14.9110 C.ar    1  UNL1        0.0073
     24 C          66.3086   92.4232   14.9472 C.ar    1  UNL1        0.0589
     25 CL         66.9315   92.8106   16.2556 Cl      1  UNL1       -0.0822
     26 C          66.7742   93.0673   13.6751 C.ar    1  UNL1        0.0323
     27 C          66.1512   92.6799   12.3666 C.ar    1  UNL1        0.1034
     28 C          65.0628   91.6484   12.3304 C.ar    1  UNL1        0.0168
     29 N          66.6168   93.3239   11.0945 N.ar    1  UNL1       -0.1478
     30 N          67.8135   92.9170   10.2868 N.ar    1  UNL1       -0.1447
     31 C          67.9037   93.8296    9.0998 C.ar    1  UNL1        0.1446
     32 C          66.7628   94.8006    9.1738 C.ar    1  UNL1        0.1446
     33 N          65.9674   94.4881   10.4066 N.ar    1  UNL1       -0.1447
@<TRIPOS>BOND
     1     9    10    1
     2    10    11   ar
     3    11    12   ar
     4    12    13   ar
     5    13    14   ar
     6    14     1    1
     7     1     2    2
     8     1     3   am
     9     3     4    1
    10     4     5    1
    11     5     6    1
    12     6     7    1
    13     7     8    1
    14     8    21    1
    15    21    22    1
    16    22    23   ar
    17    23    24   ar
    18    24    25    1
    19    24    26   ar
    20    26    27   ar
    21    27    29    1
    22    29    30   ar
    23    30    31   ar
    24    31    32   ar
    25    32    33   ar
    26    27    28   ar
    27    14    15   ar
    28    15    16    1
    29    16    17   ar
    30    17    18   ar
    31    18    19   ar
    32    19    20   ar
    33    15    10   ar
    34    20    16   ar
    35     8     3    1
    36    28    22   ar
    37    33    29   ar
@<TRIPOS>MOLECULE
*****
 33 37 0 0 0
SMALL
GASTEIGER

@<TRIPOS>ATOM
      1 C          63.0023   86.8134   12.2114 C.2     1  UNL1        0.2506
      2 O          63.7857   87.3660   13.3651 O.2     1  UNL1       -0.2699
      3 N          62.1354   87.7211   11.3901 N.am    1  UNL1       -0.2723
      4 C          61.3520   87.1685   10.2365 C.3     1  UNL1        0.1257
      5 C          60.4851   88.0763    9.4152 C.3     1  UNL1        0.1637
      6 O          60.4017   89.5366    9.7475 O.3     1  UNL1       -0.3502
      7 C          61.1851   90.0892   10.9012 C.3     1  UNL1        0.1622
      8 C          62.0519   89.1815   11.7225 C.3     1  UNL1        0.1096
      9 C          63.2326   81.8547   13.7474 C.3     1  UNL1        0.0327
     10 C          63.2009   82.8738   12.6470 C.ar    1  UNL1       -0.0023
     11 C          63.2527   82.4324   11.2144 C.ar    1  UNL1       -0.0027
     12 C          63.2210   83.4514   10.1141 C.ar    1  UNL1       -0.0001
     13 C          63.1375   84.9116   10.4464 C.ar    1  UNL1        0.0061
     14 C          63.0857   85.3530   11.8791 C.ar    1  UNL1        0.0726
     15 C          63.1174   84.3341   12.9794 C.ar    1  UNL1        0.1032
     16 N          63.0657   84.7754   14.4121 N.ar    1  UNL1       -0.1480
     17 N          61.8356   84.8526   15.2670 N.ar    1  UNL1       -0.1447
     18 C          62.2446   85.3420   16.6247 C.ar    1  UNL1        0.1446
     19 C          63.7275   85.5673   16.6088 C.ar    1  UNL1        0.1446
     20 N          64.2349   85.2171   15.2414 N.ar    1  UNL1       -0.1447
     21 C          62.8353   89.7341   12.8761 C.3     1  UNL1        0.0488
     22 C          63.8953   90.7680   12.6363 C.ar    1  UNL1       -0.0181
     23 C          63.9518   91.4939   11.3249 C.ar    1  UNL1        0.0073
     24 C          65.0117   92.5279   11.0850 C.ar    1  UNL1        0.0589
     25 CL         65.0682   93.2538    9.7736 Cl      1  UNL1       -0.0822
     26 C          66.0152   92.8358   12.1566 C.ar    1  UNL1        0.0323
     27 C          65.9587   92.1098   13.4680 C.ar    1  UNL1        0.1034
     28 C          64.8987   91.0759   13.7078 C.ar    1  UNL1        0.0168
     29 N          66.9622   92.4177   14.5396 N.ar    1  UNL1       -0.1478
     30 N          67.3752   93.7864   14.9937 N.ar    1  UNL1       -0.1447
     31 C          68.3971   93.6256   16.0799 C.ar    1  UNL1        0.1446
     32 C          68.6156   92.1576   16.2972 C.ar    1  UNL1        0.1446
     33 N          67.7288   91.4110   15.3452 N.ar    1  UNL1       -0.1447
@<TRIPOS>BOND
     1     9    10    1
     2    10    11   ar
     3    11    12   ar
     4    12    13   ar
     5    13    14   ar
     6    14     1    1
     7     1     2    2
     8     1     3   am
     9     3     4    1
    10     4     5    1
    11     5     6    1
    12     6     7    1
    13     7     8    1
    14     8    21    1
    15    21    22    1
    16    22    23   ar
    17    23    24   ar
    18    24    25    1
    19    24    26   ar
    20    26    27   ar
    21    27    29    1
    22    29    30   ar
    23    30    31   ar
    24    31    32   ar
    25    32    33   ar
    26    27    28   ar
    27    14    15   ar
    28    15    16    1
    29    16    17   ar
    30    17    18   ar
    31    18    19   ar
    32    19    20   ar
    33    15    10   ar
    34    20    16   ar
    35     8     3    1
    36    28    22   ar
    37    33    29   ar
@<TRIPOS>MOLECULE
*****
 33 37 0 0 0
SMALL
GASTEIGER

@<TRIPOS>ATOM
      1 C          62.7759   88.5612   11.5611 C.2     1  UNL1        0.2506
      2 O          62.7386   90.0601   11.5156 O.2     1  UNL1       -0.2699
      3 N          63.3872   87.8616   12.7387 N.am    1  UNL1       -0.2723
      4 C          63.4245   86.3628   12.7842 C.3     1  UNL1        0.1257
      5 C          64.0359   85.6632   13.9619 C.3     1  UNL1        0.1637
      6 O          64.6099   86.4624   15.0939 O.3     1  UNL1       -0.3502
      7 C          64.5726   87.9613   15.0484 C.3     1  UNL1        0.1622
      8 C          63.9613   88.6609   13.8708 C.3     1  UNL1        0.1096
      9 C          58.7525   87.3169    8.5173 C.3     1  UNL1        0.0327
     10 C          60.1902   87.1398    8.9071 C.ar    1  UNL1       -0.0023
     11 C          61.0537   86.1636    8.1647 C.ar    1  UNL1       -0.0027
     12 C          62.4913   85.9865    8.5544 C.ar    1  UNL1       -0.0001
     13 C          63.0653   86.7857    9.6865 C.ar    1  UNL1        0.0061
     14 C          62.2018   87.7620   10.4289 C.ar    1  UNL1        0.0726
     15 C          60.7642   87.9391   10.0392 C.ar    1  UNL1        0.1032
     16 N          59.9006   88.9153   10.7816 N.ar    1  UNL1       -0.1480
     17 N          59.1121   88.6273   12.0247 N.ar    1  UNL1       -0.1447
     18 C          58.3981   89.8850   12.4226 C.ar    1  UNL1        0.1446
     19 C          58.7453   90.9504   11.4255 C.ar    1  UNL1        0.1446
     20 N          59.6739   90.3511   10.4113 N.ar    1  UNL1       -0.1447
     21 C          63.9240   90.1597   13.8253 C.3     1  UNL1        0.0488
     22 C          65.2036   90.9405   13.7715 C.ar    1  UNL1       -0.0181
     23 C          66.0504   91.0782   15.0019 C.ar    1  UNL1        0.0073
     24 C          67.3301   91.8590   14.9481 C.ar    1  UNL1        0.0589
     25 CL         68.1769   91.9968   16.1785 Cl      1  UNL1       -0.0822
     26 C          67.7629   92.5021   13.6639 C.ar    1  UNL1        0.0323
     27 C          66.9160   92.3643   12.4335 C.ar    1  UNL1        0.1034
     28 C          65.6364   91.5835   12.4873 C.ar    1  UNL1        0.0168
     29 N          67.3488   93.0073   11.1493 N.ar    1  UNL1       -0.1478
     30 N          67.0008   94.3944   10.6966 N.ar    1  UNL1       -0.1447
     31 C          67.6425   94.6205    9.3598 C.ar    1  UNL1        0.1446
     32 C          68.3872   93.3732    8.9862 C.ar    1  UNL1        0.1446
     33 N          68.2057   92.3761   10.0921 N.ar    1  UNL1       -0.1447
@<TRIPOS>BOND
     1     9    10    1
     2    10    11   ar
     3    11    12   ar
     4    12    13   ar
     5    13    14   ar
     6    14     1    1
     7     1     2    2
     8     1     3   am
     9     3     4    1
    10     4     5    1
    11     5     6    1
    12     6     7    1
    13     7     8    1
    14     8    21    1
    15    21    22    1
    16    22    23   ar
    17    23    24   ar
    18    24    25    1
    19    24    26   ar
    20    26    27   ar
    21    27    29    1
    22    29    30   ar
    23    30    31   ar
    24    31    32   ar
    25    32    33   ar
    26    27    28   ar
    27    14    15   ar
    28    15    16    1
    29    16    17   ar
    30    17    18   ar
    31    18    19   ar
    32    19    20   ar
    33    15    10   ar
    34    20    16   ar
    35     8     3    1
    36    28    22   ar
    37    33    29   ar
@<TRIPOS>MOLECULE
*****
 33 37 0 0 0
SMALL
GASTEIGER

@<TRIPOS>ATOM
      1 C          63.7326   87.3246   13.6278 C.2     1  UNL1        0.2506
      2 O          63.8938   88.2417   12.4518 O.2     1  UNL1       -0.2699
      3 N          63.5127   87.8937   14.9981 N.am    1  UNL1       -0.2723
      4 C          63.3515   86.9766   16.1741 C.3     1  UNL1        0.1257
      5 C          63.1317   87.5457   17.5445 C.3     1  UNL1        0.1637
      6 O          63.0731   89.0319   17.7388 O.3     1  UNL1       -0.3502
      7 C          63.2343   89.9490   16.5628 C.3     1  UNL1        0.1622
      8 C          63.4541   89.3799   15.1925 C.3     1  UNL1        0.1096
      9 C          62.3520   83.0752   10.9750 C.3     1  UNL1        0.0327
     10 C          63.1009   83.7137   12.1071 C.ar    1  UNL1       -0.0023
     11 C          63.9084   82.8660   13.0448 C.ar    1  UNL1       -0.0027
     12 C          64.6573   83.5044   14.1768 C.ar    1  UNL1       -0.0001
     13 C          64.5987   84.9906   14.3711 C.ar    1  UNL1        0.0061
     14 C          63.7912   85.8383   13.4334 C.ar    1  UNL1        0.0726
     15 C          63.0423   85.1999   12.3014 C.ar    1  UNL1        0.1032
     16 N          62.2348   86.0476   11.3637 N.ar    1  UNL1       -0.1480
     17 N          60.9552   86.7563   11.6959 N.ar    1  UNL1       -0.1447
     18 C          60.4946   87.4822   10.4667 C.ar    1  UNL1        0.1446
     19 C          61.4897   87.2222    9.3747 C.ar    1  UNL1        0.1446
     20 N          62.5651   86.3356    9.9291 N.ar    1  UNL1       -0.1447
     21 C          63.6154   90.2970   14.0165 C.3     1  UNL1        0.0488
     22 C          64.8299   91.1705   13.9075 C.ar    1  UNL1       -0.0181
     23 C          65.8146   91.2301   15.0375 C.ar    1  UNL1        0.0073
     24 C          67.0292   92.1035   14.9285 C.ar    1  UNL1        0.0589
     25 CL         68.0139   92.1631   16.0584 Cl      1  UNL1       -0.0822
     26 C          67.2591   92.9174   13.6896 C.ar    1  UNL1        0.0323
     27 C          66.2743   92.8578   12.5597 C.ar    1  UNL1        0.1034
     28 C          65.0597   91.9843   12.6687 C.ar    1  UNL1        0.0168
     29 N          66.5041   93.6716   11.3208 N.ar    1  UNL1       -0.1478
     30 N          65.7729   94.9251   10.9411 N.ar    1  UNL1       -0.1447
     31 C          66.3223   95.4031    9.6297 C.ar    1  UNL1        0.1446
     32 C          67.3932   94.4451    9.1990 C.ar    1  UNL1        0.1446
     33 N          67.5055   93.3749   10.2441 N.ar    1  UNL1       -0.1447
@<TRIPOS>BOND
     1     9    10    1
     2    10    11   ar
     3    11    12   ar
     4    12    13   ar
     5    13    14   ar
     6    14     1    1
     7     1     2    2
     8     1     3   am
     9     3     4    1
    10     4     5    1
    11     5     6    1
    12     6     7    1
    13     7     8    1
    14     8    21    1
    15    21    22    1
    16    22    23   ar
    17    23    24   ar
    18    24    25    1
    19    24    26   ar
    20    26    27   ar
    21    27    29    1
    22    29    30   ar
    23    30    31   ar
    24    31    32   ar
    25    32    33   ar
    26    27    28   ar
    27    14    15   ar
    28    15    16    1
    29    16    17   ar
    30    17    18   ar
    31    18    19   ar
    32    19    20   ar
    33    15    10   ar
    34    20    16   ar
    35     8     3    1
    36    28    22   ar
    37    33    29   ar
@<TRIPOS>MOLECULE
*****
 33 37 0 0 0
SMALL
GASTEIGER

@<TRIPOS>ATOM
      1 C          63.6220   87.4620   13.4249 C.2     1  UNL1        0.2506
      2 O          63.6809   88.0618   12.0513 O.2     1  UNL1       -0.2699
      3 N          63.4678   88.3490   14.6246 N.am    1  UNL1       -0.2723
      4 C          63.4088   87.7492   15.9982 C.3     1  UNL1        0.1257
      5 C          63.2546   88.6363   17.1980 C.3     1  UNL1        0.1637
      6 O          63.1592   90.1231   17.0241 O.3     1  UNL1       -0.3502
      7 C          63.2181   90.7229   15.6505 C.3     1  UNL1        0.1622
      8 C          63.3724   89.8359   14.4508 C.3     1  UNL1        0.1096
      9 C          62.5017   82.6590   11.7890 C.3     1  UNL1        0.0327
     10 C          63.1573   83.5737   12.7808 C.ar    1  UNL1       -0.0023
     11 C          63.9082   83.0015   13.9465 C.ar    1  UNL1       -0.0027
     12 C          64.5637   83.9161   14.9382 C.ar    1  UNL1       -0.0001
     13 C          64.4683   85.4029   14.7644 C.ar    1  UNL1        0.0061
     14 C          63.7174   85.9751   13.5987 C.ar    1  UNL1        0.0726
     15 C          63.0619   85.0605   12.6069 C.ar    1  UNL1        0.1032
     16 N          62.3109   85.6326   11.4413 N.ar    1  UNL1       -0.1480
     17 N          61.0499   86.4414   11.5161 N.ar    1  UNL1       -0.1447
     18 C          60.6487   86.8051   10.1172 C.ar    1  UNL1        0.1446
     19 C          61.6619   86.2212    9.1779 C.ar    1  UNL1        0.1446
     20 N          62.6892   85.4965    9.9962 N.ar    1  UNL1       -0.1447
     21 C          63.4313   90.4357   13.0772 C.3     1  UNL1        0.0488
     22 C          64.5072   91.4234   12.7356 C.ar    1  UNL1       -0.0181
     23 C          64.5154   92.0884   11.3911 C.ar    1  UNL1        0.0073
     24 C          65.5914   93.0762   11.0495 C.ar    1  UNL1        0.0589
     25 CL         65.5996   93.7412    9.7050 Cl      1  UNL1       -0.0822
     26 C          66.6591   93.3990   12.0524 C.ar    1  UNL1        0.0323
     27 C          66.6509   92.7339   13.3970 C.ar    1  UNL1        0.1034
     28 C          65.5749   91.7462   13.7385 C.ar    1  UNL1        0.0168
     29 N          67.7186   93.0566   14.3999 N.ar    1  UNL1       -0.1478
     30 N          69.1335   92.5594   14.3722 N.ar    1  UNL1       -0.1447
     31 C          69.8482   93.1287   15.5618 C.ar    1  UNL1        0.1446
     32 C          68.8750   93.9778   16.3246 C.ar    1  UNL1        0.1446
     33 N          67.5588   93.9333   15.6066 N.ar    1  UNL1       -0.1447
@<TRIPOS>BOND
     1     9    10    1
     2    10    11   ar
     3    11    12   ar
     4    12    13   ar
     5    13    14   ar
     6    14     1    1
     7     1     2    2
     8     1     3   am
     9     3     4    1
    10     4     5    1
    11     5     6    1
    12     6     7    1
    13     7     8    1
    14     8    21    1
    15    21    22    1
    16    22    23   ar
    17    23    24   ar
    18    24    25    1
    19    24    26   ar
    20    26    27   ar
    21    27    29    1
    22    29    30   ar
    23    30    31   ar
    24    31    32   ar
    25    32    33   ar
    26    27    28   ar
    27    14    15   ar
    28    15    16    1
    29    16    17   ar
    30    17    18   ar
    31    18    19   ar
    32    19    20   ar
    33    15    10   ar
    34    20    16   ar
    35     8     3    1
    36    28    22   ar
    37    33    29   ar
@<TRIPOS>MOLECULE
*****
 33 37 0 0 0
SMALL
GASTEIGER

@<TRIPOS>ATOM
      1 C          63.5183   90.7108   12.7196 C.2     1  UNL1        0.2506
      2 O          62.9724   91.6201   11.6589 O.2     1  UNL1       -0.2699
      3 N          63.3432   89.2261   12.5976 N.am    1  UNL1       -0.2723
      4 C          63.8891   88.3168   13.6582 C.3     1  UNL1        0.1257
      5 C          63.7139   86.8320   13.5362 C.3     1  UNL1        0.1637
      6 O          62.9928   86.2566   12.3535 O.3     1  UNL1       -0.3502
      7 C          62.4468   87.1660   11.2928 C.3     1  UNL1        0.1622
      8 C          62.6220   88.6507   11.4148 C.3     1  UNL1        0.1096
      9 C          67.3624   93.6112   14.6718 C.3     1  UNL1        0.0327
     10 C          66.1615   92.7364   14.8784 C.ar    1  UNL1       -0.0023
     11 C          65.6817   92.4371   16.2677 C.ar    1  UNL1       -0.0027
     12 C          64.4809   91.5624   16.4744 C.ar    1  UNL1       -0.0001
     13 C          63.7598   90.9870   15.2916 C.ar    1  UNL1        0.0061
     14 C          64.2395   91.2863   13.9023 C.ar    1  UNL1        0.0726
     15 C          65.4404   92.1610   13.6957 C.ar    1  UNL1        0.1032
     16 N          65.9201   92.4603   12.3064 N.ar    1  UNL1       -0.1480
     17 N          67.0511   91.7758   11.5975 N.ar    1  UNL1       -0.1447
     18 C          67.1831   92.3891   10.2350 C.ar    1  UNL1        0.1446
     19 C          66.1337   93.4527   10.1017 C.ar    1  UNL1        0.1446
     20 N          65.3532   93.4966   11.3819 N.ar    1  UNL1       -0.1447
     21 C          62.0760   89.5600   10.3541 C.3     1  UNL1        0.0488
     22 C          61.2222   89.0018    9.2544 C.ar    1  UNL1       -0.0181
     23 C          61.0390   87.5185    9.1266 C.ar    1  UNL1        0.0073
     24 C          60.1852   86.9602    8.0269 C.ar    1  UNL1        0.0589
     25 CL         60.0020   85.4770    7.8991 Cl      1  UNL1       -0.0822
     26 C          59.5146   87.8853    7.0550 C.ar    1  UNL1        0.0323
     27 C          59.6978   89.3686    7.1828 C.ar    1  UNL1        0.1034
     28 C          60.5516   89.9268    8.2825 C.ar    1  UNL1        0.0168
     29 N          59.0273   90.2936    6.2109 N.ar    1  UNL1       -0.1478
     30 N          59.7184   91.2288    5.2633 N.ar    1  UNL1       -0.1447
     31 C          58.6661   91.9590    4.4827 C.ar    1  UNL1        0.1446
     32 C          57.3246   91.4752    4.9477 C.ar    1  UNL1        0.1446
     33 N          57.5477   90.4459    6.0158 N.ar    1  UNL1       -0.1447
@<TRIPOS>BOND
     1     9    10    1
     2    10    11   ar
     3    11    12   ar
     4    12    13   ar
     5    13    14   ar
     6    14     1    1
     7     1     2    2
     8     1     3   am
     9     3     4    1
    10     4     5    1
    11     5     6    1
    12     6     7    1
    13     7     8    1
    14     8    21    1
    15    21    22    1
    16    22    23   ar
    17    23    24   ar
    18    24    25    1
    19    24    26   ar
    20    26    27   ar
    21    27    29    1
    22    29    30   ar
    23    30    31   ar
    24    31    32   ar
    25    32    33   ar
    26    27    28   ar
    27    14    15   ar
    28    15    16    1
    29    16    17   ar
    30    17    18   ar
    31    18    19   ar
    32    19    20   ar
    33    15    10   ar
    34    20    16   ar
    35     8     3    1
    36    28    22   ar
    37    33    29   ar
