@<TRIPOS>MOLECULE
*****
 34 38 0 0 0
SMALL
GASTEIGER

@<TRIPOS>ATOM
      1 C          63.2464   90.6299   11.5945 C.3     1  UNL1        0.1095
      2 C          63.4880   91.5141   10.4072 C.3     1  UNL1        0.1598
      3 O          64.5990   92.5214   10.4359 O.3     1  UNL1       -0.3508
      4 C          65.4685   92.6446   11.6520 C.3     1  UNL1        0.1598
      5 C          65.2269   91.7604   12.8393 C.3     1  UNL1        0.1091
      6 N          64.1158   90.7531   12.8106 N.3     1  UNL1       -0.1533
      7 C          62.1353   89.6226   11.5657 C.3     1  UNL1        0.0261
      8 C          60.9541   90.5406   11.4565 C.3     1  UNL1        0.0020
      9 C          60.7480   89.0555   11.5025 C.3     1  UNL1        0.0020
     10 C          62.9306   88.3547   11.6650 C.3     1  UNL1        0.0867
     11 C          62.7106   80.4491   12.3386 C.3     1  UNL1        0.0948
     12 C          63.1025   81.6460   13.1534 C.2     1  UNL1        0.2262
     13 O          63.6353   81.4651   14.5438 O.2     1  UNL1       -0.2749
     14 N          62.9615   83.0240   12.5776 N.am    1  UNL1       -0.2760
     15 C          62.4288   83.2049   11.1871 C.3     1  UNL1        0.1149
     16 C          62.2878   84.5829   10.6114 C.3     1  UNL1        0.1149
     17 N          62.6797   85.7798   11.4262 N.am    1  UNL1       -0.2760
     18 C          62.5388   87.1577   10.8503 C.2     1  UNL1        0.2258
     19 O          62.0060   87.3387    9.4599 O.2     1  UNL1       -0.2749
     20 C          63.2125   85.5989   12.8166 C.3     1  UNL1        0.1149
     21 C          63.3534   84.2208   13.3923 C.3     1  UNL1        0.1149
     22 C          66.0963   91.8835   14.0555 C.3     1  UNL1        0.0189
     23 C          66.3132   92.3867   15.4518 C.3     1  UNL1        0.0015
     24 C          67.3853   91.5932   14.7655 C.3     1  UNL1        0.0015
     25 S          63.8742   89.8688   13.9979 S.O2    1  UNL1        0.0634
     26 O          62.9905   90.9203   14.6011 O.2     1  UNL1       -0.1528
     27 O          64.5931   88.7581   13.7299 O.2     1  UNL1       -0.1528
     28 C          63.6324   88.9846   15.1853 C.ar    1  UNL1        0.1223
     29 C          63.0730   89.5644   16.4506 C.ar    1  UNL1        0.0222
     30 C          62.8312   88.6801   17.6379 C.ar    1  UNL1        0.0310
     31 C          63.1489   87.2162   17.5600 C.ar    1  UNL1        0.1402
     32 F          62.9072   86.3321   18.7473 F       1  UNL1       -0.2042
     33 C          63.7083   86.6366   16.2947 C.ar    1  UNL1        0.0310
     34 C          63.9501   87.5208   15.1073 C.ar    1  UNL1        0.0222
@<TRIPOS>BOND
     1    11    12    1
     2    12    13    2
     3    12    14   am
     4    14    15    1
     5    15    16    1
     6    16    17    1
     7    17    18   am
     8    18    19    2
     9    18    10    1
    10    10     7    1
    11     1     7    1
    12     1     2    1
    13     2     3    1
    14     3     4    1
    15     4     5    1
    16     5    22    1
    17    22    23    1
    18    23    24    1
    19     5     6    1
    20     6    25    1
    21    25    26    2
    22    25    27    2
    23    25    28    1
    24    28    29   ar
    25    29    30   ar
    26    30    31   ar
    27    31    32    1
    28    31    33   ar
    29    33    34   ar
    30     7     8    1
    31     8     9    1
    32    17    20    1
    33    20    21    1
    34    21    14    1
    35     9     7    1
    36     6     1    1
    37    34    28   ar
    38    24    22    1
@<TRIPOS>MOLECULE
*****
 34 38 0 0 0
SMALL
GASTEIGER

@<TRIPOS>ATOM
      1 C          60.6183   88.8569    9.8496 C.3     1  UNL1        0.1095
      2 C          59.8406   89.8516    9.0399 C.3     1  UNL1        0.1598
      3 O          59.4200   89.5142    7.6402 O.3     1  UNL1       -0.3508
      4 C          59.7771   88.1821    7.0502 C.3     1  UNL1        0.1598
      5 C          60.5549   87.1875    7.8599 C.3     1  UNL1        0.1091
      6 N          60.9755   87.5248    9.2596 N.3     1  UNL1       -0.1533
      7 C          61.0390   89.1943   11.2493 C.3     1  UNL1        0.0261
      8 C          59.6976   89.2482   11.9186 C.3     1  UNL1        0.0020
      9 C          60.9431   89.5097   12.7127 C.3     1  UNL1        0.0020
     10 C          62.5264   89.2575   11.0663 C.3     1  UNL1        0.0867
     11 C          67.5857   94.0404   14.8778 C.3     1  UNL1        0.0948
     12 C          66.9099   92.7159   15.0756 C.2     1  UNL1        0.2262
     13 O          67.1610   91.9249   16.3251 O.2     1  UNL1       -0.2749
     14 N          65.9830   92.1825   14.0238 N.am    1  UNL1       -0.2760
     15 C          65.7319   92.9735   12.7743 C.3     1  UNL1        0.1149
     16 C          64.8049   92.4399   11.7226 C.3     1  UNL1        0.1149
     17 N          64.1291   91.1154   11.9204 N.am    1  UNL1       -0.2760
     18 C          63.2022   90.5820   10.8686 C.2     1  UNL1        0.2258
     19 O          62.9510   91.3730    9.6190 O.2     1  UNL1       -0.2749
     20 C          64.3803   90.3244   13.1698 C.3     1  UNL1        0.1149
     21 C          65.3072   90.8580   14.2216 C.3     1  UNL1        0.1149
     22 C          60.9121   85.8554    7.2700 C.3     1  UNL1        0.0189
     23 C          60.4932   84.5344    6.6960 C.3     1  UNL1        0.0015
     24 C          61.9499   84.8692    6.8222 C.3     1  UNL1        0.0015
     25 S          61.7533   86.5302   10.0694 S.O2    1  UNL1        0.0634
     26 O          62.9686   86.7988    9.2320 O.2     1  UNL1       -0.1528
     27 O          60.8616   86.0791   10.9770 O.2     1  UNL1       -0.1528
     28 C          62.5312   85.5356   10.8792 C.ar    1  UNL1        0.1223
     29 C          63.1873   84.3679   10.2040 C.ar    1  UNL1        0.0222
     30 C          63.9652   83.3733   11.0138 C.ar    1  UNL1        0.0310
     31 C          64.0870   83.5465   12.4988 C.ar    1  UNL1        0.1402
     32 F          64.8648   82.5519   13.3086 F       1  UNL1       -0.2042
     33 C          63.4308   84.7142   13.1739 C.ar    1  UNL1        0.0310
     34 C          62.6529   85.7088   12.3642 C.ar    1  UNL1        0.0222
@<TRIPOS>BOND
     1    11    12    1
     2    12    13    2
     3    12    14   am
     4    14    15    1
     5    15    16    1
     6    16    17    1
     7    17    18   am
     8    18    19    2
     9    18    10    1
    10    10     7    1
    11     1     7    1
    12     1     2    1
    13     2     3    1
    14     3     4    1
    15     4     5    1
    16     5    22    1
    17    22    23    1
    18    23    24    1
    19     5     6    1
    20     6    25    1
    21    25    26    2
    22    25    27    2
    23    25    28    1
    24    28    29   ar
    25    29    30   ar
    26    30    31   ar
    27    31    32    1
    28    31    33   ar
    29    33    34   ar
    30     7     8    1
    31     8     9    1
    32    17    20    1
    33    20    21    1
    34    21    14    1
    35     9     7    1
    36     6     1    1
    37    34    28   ar
    38    24    22    1
@<TRIPOS>MOLECULE
*****
 34 38 0 0 0
SMALL
GASTEIGER

@<TRIPOS>ATOM
      1 C          63.4459   89.8661   13.3244 C.3     1  UNL1        0.1095
      2 C          62.3164   89.3095   12.5095 C.3     1  UNL1        0.1598
      3 O          62.1145   89.7678   11.0956 O.3     1  UNL1       -0.3508
      4 C          63.0424   90.7829   10.4966 C.3     1  UNL1        0.1598
      5 C          64.1719   91.3396   11.3115 C.3     1  UNL1        0.1091
      6 N          64.3738   90.8812   12.7254 N.3     1  UNL1       -0.1533
      7 C          63.6478   89.4077   14.7383 C.3     1  UNL1        0.0261
      8 C          63.1822   90.6276   15.4766 C.3     1  UNL1        0.0020
      9 C          63.6636   89.4283   16.2382 C.3     1  UNL1        0.0020
     10 C          64.1835   88.0287   14.4911 C.3     1  UNL1        0.0867
     11 C          62.2223   80.4217   13.3564 C.3     1  UNL1        0.0948
     12 C          62.7541   81.5846   12.5723 C.2     1  UNL1        0.2262
     13 O          63.0616   81.4274   11.1126 O.2     1  UNL1       -0.2749
     14 N          62.9785   82.9049   13.2481 N.am    1  UNL1       -0.2760
     15 C          62.6710   83.0621   14.7077 C.3     1  UNL1        0.1149
     16 C          62.8954   84.3825   15.3834 C.3     1  UNL1        0.1149
     17 N          63.4273   85.5454   14.5994 N.am    1  UNL1       -0.2760
     18 C          63.6516   86.8657   15.2751 C.2     1  UNL1        0.2258
     19 O          63.3442   87.0230   16.7349 O.2     1  UNL1       -0.2749
     20 C          63.7348   85.3882   13.1397 C.3     1  UNL1        0.1149
     21 C          63.5103   84.0678   12.4640 C.3     1  UNL1        0.1149
     22 C          65.0998   92.3547   10.7126 C.3     1  UNL1        0.0189
     23 C          66.4225   92.7016   10.0963 C.3     1  UNL1        0.0015
     24 C          65.3839   93.7661   10.2916 C.3     1  UNL1        0.0015
     25 S          65.5033   91.4379   13.5404 S.O2    1  UNL1        0.0634
     26 O          64.8937   92.8056   13.4511 O.2     1  UNL1       -0.1528
     27 O          66.2817   90.3648   13.7959 O.2     1  UNL1       -0.1528
     28 C          66.6329   91.9946   14.3554 C.ar    1  UNL1        0.1223
     29 C          66.3684   92.5484   15.7241 C.ar    1  UNL1        0.0222
     30 C          67.4981   93.1051   16.5390 C.ar    1  UNL1        0.0310
     31 C          68.8921   93.1081   15.9853 C.ar    1  UNL1        0.1402
     32 F          70.0216   93.6648   16.8002 F       1  UNL1       -0.2042
     33 C          69.1565   92.5543   14.6165 C.ar    1  UNL1        0.0310
     34 C          68.0269   91.9976   13.8015 C.ar    1  UNL1        0.0222
@<TRIPOS>BOND
     1    11    12    1
     2    12    13    2
     3    12    14   am
     4    14    15    1
     5    15    16    1
     6    16    17    1
     7    17    18   am
     8    18    19    2
     9    18    10    1
    10    10     7    1
    11     1     7    1
    12     1     2    1
    13     2     3    1
    14     3     4    1
    15     4     5    1
    16     5    22    1
    17    22    23    1
    18    23    24    1
    19     5     6    1
    20     6    25    1
    21    25    26    2
    22    25    27    2
    23    25    28    1
    24    28    29   ar
    25    29    30   ar
    26    30    31   ar
    27    31    32    1
    28    31    33   ar
    29    33    34   ar
    30     7     8    1
    31     8     9    1
    32    17    20    1
    33    20    21    1
    34    21    14    1
    35     9     7    1
    36     6     1    1
    37    34    28   ar
    38    24    22    1
@<TRIPOS>MOLECULE
*****
 34 38 0 0 0
SMALL
GASTEIGER

@<TRIPOS>ATOM
      1 C          60.5393   88.3920    9.6005 C.3     1  UNL1        0.1095
      2 C          59.7678   89.3909    8.7900 C.3     1  UNL1        0.1598
      3 O          59.4315   89.0957    7.3583 O.3     1  UNL1       -0.3508
      4 C          59.8667   87.8015    6.7371 C.3     1  UNL1        0.1598
      5 C          60.6381   86.8026    7.5476 C.3     1  UNL1        0.1091
      6 N          60.9744   87.0978    8.9793 N.3     1  UNL1       -0.1533
      7 C          60.8756   88.6871   11.0322 C.3     1  UNL1        0.0261
      8 C          59.5129   88.5733   11.6487 C.3     1  UNL1        0.0020
      9 C          60.6982   88.9072   12.5053 C.3     1  UNL1        0.0020
     10 C          62.3551   88.9035   10.9129 C.3     1  UNL1        0.0867
     11 C          67.2940   93.6426   14.9314 C.3     1  UNL1        0.0948
     12 C          66.4289   93.6837   13.7067 C.2     1  UNL1        0.2262
     13 O          66.3658   94.9299   12.8744 O.2     1  UNL1       -0.2749
     14 N          65.6267   92.4783   13.3145 N.am    1  UNL1       -0.2760
     15 C          65.6898   91.2321   14.1469 C.3     1  UNL1        0.1149
     16 C          64.8876   90.0268   13.7545 C.3     1  UNL1        0.1149
     17 N          64.0224   90.0679   12.5299 N.am    1  UNL1       -0.2760
     18 C          63.2203   88.8625   12.1376 C.2     1  UNL1        0.2258
     19 O          63.2833   87.6162   12.9700 O.2     1  UNL1       -0.2749
     20 C          63.9594   91.3141   11.6975 C.3     1  UNL1        0.1149
     21 C          64.7616   92.5194   12.0898 C.3     1  UNL1        0.1149
     22 C          61.0733   85.5085    6.9265 C.3     1  UNL1        0.0189
     23 C          62.1668   84.6012    6.4458 C.3     1  UNL1        0.0015
     24 C          60.7333   84.1741    6.3314 C.3     1  UNL1        0.0015
     25 S          61.7459   86.0989    9.7899 S.O2    1  UNL1        0.0634
     26 O          62.9853   86.4226    9.0092 O.2     1  UNL1       -0.1528
     27 O          60.8318   85.5987   10.6481 O.2     1  UNL1       -0.1528
     28 C          62.5175   85.1000   10.6004 C.ar    1  UNL1        0.1223
     29 C          63.4739   84.1634    9.9237 C.ar    1  UNL1        0.0222
     30 C          64.2455   83.1646   10.7343 C.ar    1  UNL1        0.0310
     31 C          64.0606   83.1023   12.2216 C.ar    1  UNL1        0.1402
     32 F          64.8322   82.1035   13.0321 F       1  UNL1       -0.2042
     33 C          63.1042   84.0390   12.8982 C.ar    1  UNL1        0.0310
     34 C          62.3326   85.0379   12.0877 C.ar    1  UNL1        0.0222
@<TRIPOS>BOND
     1    11    12    1
     2    12    13    2
     3    12    14   am
     4    14    15    1
     5    15    16    1
     6    16    17    1
     7    17    18   am
     8    18    19    2
     9    18    10    1
    10    10     7    1
    11     1     7    1
    12     1     2    1
    13     2     3    1
    14     3     4    1
    15     4     5    1
    16     5    22    1
    17    22    23    1
    18    23    24    1
    19     5     6    1
    20     6    25    1
    21    25    26    2
    22    25    27    2
    23    25    28    1
    24    28    29   ar
    25    29    30   ar
    26    30    31   ar
    27    31    32    1
    28    31    33   ar
    29    33    34   ar
    30     7     8    1
    31     8     9    1
    32    17    20    1
    33    20    21    1
    34    21    14    1
    35     9     7    1
    36     6     1    1
    37    34    28   ar
    38    24    22    1
@<TRIPOS>MOLECULE
*****
 34 38 0 0 0
SMALL
GASTEIGER

@<TRIPOS>ATOM
      1 C          64.3670   90.1657   15.0562 C.3     1  UNL1        0.1095
      2 C          65.4036   90.8458   15.9005 C.3     1  UNL1        0.1598
      3 O          66.2836   91.9025   15.3013 O.3     1  UNL1       -0.3508
      4 C          66.1269   92.2791   13.8578 C.3     1  UNL1        0.1598
      5 C          65.0903   91.5990   13.0135 C.3     1  UNL1        0.1091
      6 N          64.2103   90.5423   13.6127 N.3     1  UNL1       -0.1533
      7 C          63.4870   89.1090   15.6553 C.3     1  UNL1        0.0261
      8 C          62.4930   89.9736   16.3725 C.3     1  UNL1        0.0020
      9 C          62.3680   88.4799   16.4313 C.3     1  UNL1        0.0020
     10 C          64.1754   87.8773   15.1462 C.3     1  UNL1        0.0867
     11 C          62.7312   80.4642   12.7049 C.3     1  UNL1        0.0948
     12 C          63.0650   81.8053   12.1217 C.2     1  UNL1        0.2262
     13 O          63.2047   81.9637   10.6367 O.2     1  UNL1       -0.2749
     14 N          63.2592   82.9880   13.0237 N.am    1  UNL1       -0.2760
     15 C          63.1195   82.8296   14.5087 C.3     1  UNL1        0.1149
     16 C          63.3137   84.0124   15.4106 C.3     1  UNL1        0.1149
     17 N          63.6475   85.3535   14.8274 N.am    1  UNL1       -0.2760
     18 C          63.8416   86.5362   15.7294 C.2     1  UNL1        0.2258
     19 O          63.7019   86.3779   17.2145 O.2     1  UNL1       -0.2749
     20 C          63.7871   85.5119   13.3424 C.3     1  UNL1        0.1149
     21 C          63.5930   84.3290   12.4404 C.3     1  UNL1        0.1149
     22 C          64.9336   91.9756   11.5701 C.3     1  UNL1        0.0189
     23 C          65.4407   92.6866   10.3506 C.3     1  UNL1        0.0015
     24 C          64.1548   91.9167   10.2894 C.3     1  UNL1        0.0015
     25 S          63.1737   89.8622   12.7684 S.O2    1  UNL1        0.0634
     26 O          62.2026   90.9642   13.0731 O.2     1  UNL1       -0.1528
     27 O          63.7958   88.7517   12.3185 O.2     1  UNL1       -0.1528
     28 C          62.1369   89.1821   11.9242 C.ar    1  UNL1        0.1223
     29 C          60.7407   89.7272   11.8672 C.ar    1  UNL1        0.0222
     30 C          59.7040   89.0470   11.0229 C.ar    1  UNL1        0.0310
     31 C          60.0635   87.8219   10.2357 C.ar    1  UNL1        0.1402
     32 F          59.0268   87.1418    9.3915 F       1  UNL1       -0.2042
     33 C          61.4598   87.2769   10.2928 C.ar    1  UNL1        0.0310
     34 C          62.4966   87.9570   11.1370 C.ar    1  UNL1        0.0222
@<TRIPOS>BOND
     1    11    12    1
     2    12    13    2
     3    12    14   am
     4    14    15    1
     5    15    16    1
     6    16    17    1
     7    17    18   am
     8    18    19    2
     9    18    10    1
    10    10     7    1
    11     1     7    1
    12     1     2    1
    13     2     3    1
    14     3     4    1
    15     4     5    1
    16     5    22    1
    17    22    23    1
    18    23    24    1
    19     5     6    1
    20     6    25    1
    21    25    26    2
    22    25    27    2
    23    25    28    1
    24    28    29   ar
    25    29    30   ar
    26    30    31   ar
    27    31    32    1
    28    31    33   ar
    29    33    34   ar
    30     7     8    1
    31     8     9    1
    32    17    20    1
    33    20    21    1
    34    21    14    1
    35     9     7    1
    36     6     1    1
    37    34    28   ar
    38    24    22    1
@<TRIPOS>MOLECULE
*****
 34 38 0 0 0
SMALL
GASTEIGER

@<TRIPOS>ATOM
      1 C          63.9131   90.8432   14.1113 C.3     1  UNL1        0.1095
      2 C          63.2008   90.4721   15.3781 C.3     1  UNL1        0.1598
      3 O          63.6995   90.9845   16.6967 O.3     1  UNL1       -0.3508
      4 C          64.9107   91.8680   16.7484 C.3     1  UNL1        0.1598
      5 C          65.6230   92.2391   15.4817 C.3     1  UNL1        0.1091
      6 N          65.1242   91.7267   14.1631 N.3     1  UNL1       -0.1533
      7 C          63.4144   90.3308   12.7927 C.3     1  UNL1        0.0261
      8 C          62.9667   91.6178   12.1656 C.3     1  UNL1        0.0020
      9 C          62.8203   90.3271   11.4153 C.3     1  UNL1        0.0020
     10 C          63.6888   88.8659   12.9618 C.3     1  UNL1        0.0867
     11 C          62.5822   81.0257   12.4085 C.3     1  UNL1        0.0948
     12 C          63.2115   82.0190   13.3397 C.2     1  UNL1        0.2262
     13 O          63.8788   81.5490   14.5982 O.2     1  UNL1       -0.2749
     14 N          63.1735   83.4824   13.0124 N.am    1  UNL1       -0.2760
     15 C          62.5062   83.9523   11.7539 C.3     1  UNL1        0.1149
     16 C          62.4682   85.4158   11.4267 C.3     1  UNL1        0.1149
     17 N          63.0975   86.4091   12.3579 N.am    1  UNL1       -0.2760
     18 C          63.0595   87.8725   12.0306 C.2     1  UNL1        0.2258
     19 O          62.3922   88.3425   10.7721 O.2     1  UNL1       -0.2749
     20 C          63.7648   85.9391   13.6164 C.3     1  UNL1        0.1149
     21 C          63.8028   84.4757   13.9437 C.3     1  UNL1        0.1149
     22 C          66.8340   93.1226   15.5333 C.3     1  UNL1        0.0189
     23 C          68.1392   93.5019   16.1678 C.3     1  UNL1        0.0015
     24 C          67.6264   94.2737   14.9882 C.3     1  UNL1        0.0015
     25 S          65.8365   92.0978   12.8962 S.O2    1  UNL1        0.0634
     26 O          66.8511   91.0228   13.1518 O.2     1  UNL1       -0.1528
     27 O          65.1057   93.1173   12.3970 O.2     1  UNL1       -0.1528
     28 C          66.5489   92.4688   11.6293 C.ar    1  UNL1        0.1223
     29 C          66.0021   93.5558   10.7522 C.ar    1  UNL1        0.0222
     30 C          66.7146   93.9267    9.4853 C.ar    1  UNL1        0.0310
     31 C          67.9737   93.2107    9.0956 C.ar    1  UNL1        0.1402
     32 F          68.6860   93.5816    7.8288 F       1  UNL1       -0.2042
     33 C          68.5203   92.1237    9.9728 C.ar    1  UNL1        0.0310
     34 C          67.8080   91.7527   11.2397 C.ar    1  UNL1        0.0222
@<TRIPOS>BOND
     1    11    12    1
     2    12    13    2
     3    12    14   am
     4    14    15    1
     5    15    16    1
     6    16    17    1
     7    17    18   am
     8    18    19    2
     9    18    10    1
    10    10     7    1
    11     1     7    1
    12     1     2    1
    13     2     3    1
    14     3     4    1
    15     4     5    1
    16     5    22    1
    17    22    23    1
    18    23    24    1
    19     5     6    1
    20     6    25    1
    21    25    26    2
    22    25    27    2
    23    25    28    1
    24    28    29   ar
    25    29    30   ar
    26    30    31   ar
    27    31    32    1
    28    31    33   ar
    29    33    34   ar
    30     7     8    1
    31     8     9    1
    32    17    20    1
    33    20    21    1
    34    21    14    1
    35     9     7    1
    36     6     1    1
    37    34    28   ar
    38    24    22    1
@<TRIPOS>MOLECULE
*****
 34 38 0 0 0
SMALL
GASTEIGER

@<TRIPOS>ATOM
      1 C          62.8747   88.8673   12.6609 C.3     1  UNL1        0.1095
      2 C          63.3605   89.3913   13.9797 C.3     1  UNL1        0.1598
      3 O          63.8866   88.4427   15.0158 O.3     1  UNL1       -0.3508
      4 C          63.9269   86.9701   14.7329 C.3     1  UNL1        0.1598
      5 C          63.4411   86.4462   13.4141 C.3     1  UNL1        0.1091
      6 N          62.9150   87.3947   12.3780 N.3     1  UNL1       -0.1533
      7 C          62.3486   89.8158   11.6248 C.3     1  UNL1        0.0261
      8 C          60.8861   89.7783   11.9558 C.3     1  UNL1        0.0020
      9 C          61.3781   90.6370   10.8286 C.3     1  UNL1        0.0020
     10 C          63.6284   90.1829   10.9338 C.3     1  UNL1        0.0867
     11 C          68.4339   94.4127   15.6260 C.3     1  UNL1        0.0948
     12 C          67.8963   93.0166   15.5170 C.2     1  UNL1        0.2262
     13 O          68.2913   91.9798   16.5265 O.2     1  UNL1       -0.2749
     14 N          66.9637   92.6572   14.3984 N.am    1  UNL1       -0.2760
     15 C          66.5687   93.6939   13.3890 C.3     1  UNL1        0.1149
     16 C          65.6361   93.3345   12.2704 C.3     1  UNL1        0.1149
     17 N          65.0986   91.9384   12.1614 N.am    1  UNL1       -0.2760
     18 C          64.1660   91.5790   11.0429 C.2     1  UNL1        0.2258
     19 O          63.7709   92.6158   10.0333 O.2     1  UNL1       -0.2749
     20 C          65.4936   90.9016   13.1709 C.3     1  UNL1        0.1149
     21 C          66.4262   91.2611   14.2895 C.3     1  UNL1        0.1149
     22 C          63.4813   84.9737   13.1312 C.3     1  UNL1        0.0189
     23 C          62.8081   83.6332   13.1244 C.3     1  UNL1        0.0015
     24 C          64.2245   83.7636   12.6479 C.3     1  UNL1        0.0015
     25 S          62.4292   86.8708   11.0591 S.O2    1  UNL1        0.0634
     26 O          61.1312   86.4710   11.6961 O.2     1  UNL1       -0.1528
     27 O          63.4567   87.1059   10.2156 O.2     1  UNL1       -0.1528
     28 C          61.9432   86.3469    9.7402 C.ar    1  UNL1        0.1223
     29 C          62.8595   85.5375    8.8712 C.ar    1  UNL1        0.0222
     30 C          62.3734   85.0136    7.5523 C.ar    1  UNL1        0.0310
     31 C          60.9712   85.2991    7.1025 C.ar    1  UNL1        0.1402
     32 F          60.4853   84.7752    5.7837 F       1  UNL1       -0.2042
     33 C          60.0550   86.1085    7.9717 C.ar    1  UNL1        0.0310
     34 C          60.5410   86.6324    9.2906 C.ar    1  UNL1        0.0222
@<TRIPOS>BOND
     1    11    12    1
     2    12    13    2
     3    12    14   am
     4    14    15    1
     5    15    16    1
     6    16    17    1
     7    17    18   am
     8    18    19    2
     9    18    10    1
    10    10     7    1
    11     1     7    1
    12     1     2    1
    13     2     3    1
    14     3     4    1
    15     4     5    1
    16     5    22    1
    17    22    23    1
    18    23    24    1
    19     5     6    1
    20     6    25    1
    21    25    26    2
    22    25    27    2
    23    25    28    1
    24    28    29   ar
    25    29    30   ar
    26    30    31   ar
    27    31    32    1
    28    31    33   ar
    29    33    34   ar
    30     7     8    1
    31     8     9    1
    32    17    20    1
    33    20    21    1
    34    21    14    1
    35     9     7    1
    36     6     1    1
    37    34    28   ar
    38    24    22    1
@<TRIPOS>MOLECULE
*****
 34 38 0 0 0
SMALL
GASTEIGER

@<TRIPOS>ATOM
      1 C          63.3846   95.5259   -1.2962 C.3     1  UNL1        0.1095
      2 C          64.8294   95.8986   -1.4494 C.3     1  UNL1        0.1598
      3 O          65.4365   96.0012   -2.8172 O.3     1  UNL1       -0.3508
      4 C          64.5988   95.7311   -4.0318 C.3     1  UNL1        0.1598
      5 C          63.1539   95.3584   -3.8786 C.3     1  UNL1        0.1091
      6 N          62.5468   95.2558   -2.5108 N.3     1  UNL1       -0.1533
      7 C          62.7774   95.4233    0.0716 C.3     1  UNL1        0.0261
      8 C          62.9108   96.8475    0.5233 C.3     1  UNL1        0.0020
      9 C          62.2898   95.8277    1.4313 C.3     1  UNL1        0.0020
     10 C          62.4331   93.9636    0.0950 C.3     1  UNL1        0.0867
     11 C          59.1231   90.3857    6.3593 C.3     1  UNL1        0.0948
     12 C          58.7149   91.2340    5.1915 C.2     1  UNL1        0.2262
     13 O          57.2753   91.6119    5.0058 O.2     1  UNL1       -0.2749
     14 N          59.7466   91.7043    4.2094 N.am    1  UNL1       -0.2760
     15 C          61.1862   91.3263    4.3951 C.3     1  UNL1        0.1149
     16 C          62.2178   91.7967    3.4128 C.3     1  UNL1        0.1149
     17 N          61.8096   92.6450    2.2450 N.am    1  UNL1       -0.2760
     18 C          62.8412   93.1153    1.2628 C.2     1  UNL1        0.2258
     19 O          64.2810   92.7374    1.4485 O.2     1  UNL1       -0.2749
     20 C          60.3700   93.0229    2.0593 C.3     1  UNL1        0.1149
     21 C          59.3384   92.5526    3.0416 C.3     1  UNL1        0.1149
     22 C          62.3162   95.0882   -5.0931 C.3     1  UNL1        0.0189
     23 C          62.0354   94.2776   -6.3236 C.3     1  UNL1        0.0015
     24 C          61.1456   95.4311   -5.9662 C.3     1  UNL1        0.0015
     25 S          61.1020   94.8831   -2.3575 S.O2    1  UNL1        0.0634
     26 O          60.7474   96.3300   -2.1819 O.2     1  UNL1       -0.1528
     27 O          61.0968   93.5384   -2.4775 O.2     1  UNL1       -0.1528
     28 C          59.6570   94.5105   -2.2042 C.ar    1  UNL1        0.1223
     29 C          58.9919   93.6467   -3.2344 C.ar    1  UNL1        0.0222
     30 C          57.5469   93.2742   -3.0810 C.ar    1  UNL1        0.0310
     31 C          56.7672   93.7654   -1.8975 C.ar    1  UNL1        0.1402
     32 F          55.3224   93.3928   -1.7442 F       1  UNL1       -0.2042
     33 C          57.4325   94.6291   -0.8673 C.ar    1  UNL1        0.0310
     34 C          58.8774   95.0017   -1.0206 C.ar    1  UNL1        0.0222
@<TRIPOS>BOND
     1    11    12    1
     2    12    13    2
     3    12    14   am
     4    14    15    1
     5    15    16    1
     6    16    17    1
     7    17    18   am
     8    18    19    2
     9    18    10    1
    10    10     7    1
    11     1     7    1
    12     1     2    1
    13     2     3    1
    14     3     4    1
    15     4     5    1
    16     5    22    1
    17    22    23    1
    18    23    24    1
    19     5     6    1
    20     6    25    1
    21    25    26    2
    22    25    27    2
    23    25    28    1
    24    28    29   ar
    25    29    30   ar
    26    30    31   ar
    27    31    32    1
    28    31    33   ar
    29    33    34   ar
    30     7     8    1
    31     8     9    1
    32    17    20    1
    33    20    21    1
    34    21    14    1
    35     9     7    1
    36     6     1    1
    37    34    28   ar
    38    24    22    1
