@<TRIPOS>MOLECULE
*****
 27 30 0 0 0
SMALL
GASTEIGER

@<TRIPOS>ATOM
      1 C          63.2218   90.7331   11.1577 C.3     1  UNL1        0.1406
      2 C          63.7630   90.4526   12.5283 C.3     1  UNL1        0.0374
      3 C          64.9299   91.2381   13.0490 C.3     1  UNL1        0.0410
      4 C          65.4712   90.9577   14.4196 C.3     1  UNL1        0.0672
      5 S          66.6381   91.7431   14.9403 S.3     1  UNL1       -0.0807
      6 C          67.2639   92.8091   14.0905 C.2     1  UNL1        0.1482
      7 N          68.4309   93.5946   14.6113 N.pl3   1  UNL1       -0.3380
      8 N          66.7227   93.0895   12.7199 N.2     1  UNL1       -0.2484
      9 C          65.5557   92.3040   12.1992 C.3     1  UNL1        0.1352
     10 C          65.0145   92.5845   10.8286 C.3     1  UNL1        0.1690
     11 O          63.8475   91.7990   10.3079 O.3     1  UNL1       -0.3494
     12 H          68.7861   93.4105   15.5108 H       1  UNL1        0.1442
     13 H          68.8416   94.2942   14.0535 H       1  UNL1        0.1442
     14 C          66.1814   93.3700   11.3493 C.ar    1  UNL1        0.0278
     15 C          65.7844   94.8048   11.5329 C.ar    1  UNL1        0.0021
     16 C          66.4102   95.8708   10.6831 C.ar    1  UNL1        0.0295
     17 C          67.4330   95.5018    9.6497 C.ar    1  UNL1        0.1424
     18 F          68.0587   96.5678    8.7999 F       1  UNL1       -0.2041
     19 C          67.8300   94.0671    9.4662 C.ar    1  UNL1        0.0590
     20 C          67.2042   93.0011   10.3160 C.ar    1  UNL1        0.1402
     21 F          67.6012   91.5663   10.1324 F       1  UNL1       -0.2044
     22 C          60.3230   86.8988    8.9722 C.3     1  UNL1        0.1537
     23 N          60.7224   88.1851    9.6324 N.ar    1  UNL1       -0.2476
     24 C          62.1185   88.5900   10.0021 C.ar    1  UNL1        0.0947
     25 C          62.0548   89.9475   10.6370 C.ar    1  UNL1        0.0442
     26 C          60.6192   90.3817   10.6596 C.ar    1  UNL1        0.1197
     27 N          59.7957   89.2925   10.0388 N.ar    1  UNL1       -0.1679
@<TRIPOS>BOND
     1    22    23    1
     2    23    24   ar
     3    24    25   ar
     4     1    25    1
     5     1     2    1
     6     3     2    1
     7     3     4    1
     8     4     5    1
     9     5     6    1
    10     6     7    1
    11     6     8    2
    12     8     9    1
    13     9    14    1
    14    14    15   ar
    15    15    16   ar
    16    16    17   ar
    17    17    18    1
    18    17    19   ar
    19    19    20   ar
    20    20    21    1
    21     9    10    1
    22    10    11    1
    23    25    26   ar
    24    26    27   ar
    25    27    23   ar
    26    11     1    1
    27     9     3    1
    28    20    14   ar
    29     7    12    1
    30     7    13    1
@<TRIPOS>MOLECULE
*****
 27 30 0 0 0
SMALL
GASTEIGER

@<TRIPOS>ATOM
      1 C          63.0974   89.1107   12.6122 C.3     1  UNL1        0.1406
      2 C          62.0861   89.5811   11.6093 C.3     1  UNL1        0.0374
      3 C          61.5073   88.6152   10.6183 C.3     1  UNL1        0.0410
      4 C          60.4959   89.0855    9.6153 C.3     1  UNL1        0.0672
      5 S          59.9171   88.1197    8.6244 S.3     1  UNL1       -0.0807
      6 C          60.3496   86.6834    8.6364 C.2     1  UNL1        0.1482
      7 N          59.7708   85.7175    7.6453 N.pl3   1  UNL1       -0.3380
      8 N          61.3609   86.2131    9.6393 N.2     1  UNL1       -0.2484
      9 C          61.9398   87.1790   10.6303 C.3     1  UNL1        0.1352
     10 C          62.9511   86.7086   11.6333 C.3     1  UNL1        0.1690
     11 O          63.5299   87.6745   12.6242 O.3     1  UNL1       -0.3494
     12 H          59.1070   86.0262    6.9871 H       1  UNL1        0.1442
     13 H          60.0546   84.7749    7.6532 H       1  UNL1        0.1442
     14 C          62.3723   85.7427   10.6423 C.ar    1  UNL1        0.0278
     15 C          62.0117   84.8605   11.8007 C.ar    1  UNL1        0.0021
     16 C          62.4442   83.4243   11.8127 C.ar    1  UNL1        0.0295
     17 C          63.2374   82.8703   10.6663 C.ar    1  UNL1        0.1424
     18 F          63.6699   81.4340   10.6783 F       1  UNL1       -0.2041
     19 C          63.5980   83.7525    9.5080 C.ar    1  UNL1        0.0590
     20 C          63.1654   85.1887    9.4960 C.ar    1  UNL1        0.1402
     21 F          63.5260   86.0709    8.3378 F       1  UNL1       -0.2044
     22 C          66.1545   92.7990   14.8330 C.3     1  UNL1        0.1537
     23 N          65.0814   91.7720   14.6240 N.ar    1  UNL1       -0.2476
     24 C          64.8488   90.9825   13.3699 C.ar    1  UNL1        0.0947
     25 C          63.6762   90.0766   13.6033 C.ar    1  UNL1        0.0442
     26 C          63.1841   90.3062   15.0015 C.ar    1  UNL1        0.1197
     27 N          64.0526   91.3539   15.6324 N.ar    1  UNL1       -0.1679
@<TRIPOS>BOND
     1    22    23    1
     2    23    24   ar
     3    24    25   ar
     4     1    25    1
     5     1     2    1
     6     3     2    1
     7     3     4    1
     8     4     5    1
     9     5     6    1
    10     6     7    1
    11     6     8    2
    12     8     9    1
    13     9    14    1
    14    14    15   ar
    15    15    16   ar
    16    16    17   ar
    17    17    18    1
    18    17    19   ar
    19    19    20   ar
    20    20    21    1
    21     9    10    1
    22    10    11    1
    23    25    26   ar
    24    26    27   ar
    25    27    23   ar
    26    11     1    1
    27     9     3    1
    28    20    14   ar
    29     7    12    1
    30     7    13    1
@<TRIPOS>MOLECULE
*****
 27 30 0 0 0
SMALL
GASTEIGER

@<TRIPOS>ATOM
      1 C          65.5477   92.5998   11.2832 C.3     1  UNL1        0.1406
      2 C          65.6979   92.5466   12.7747 C.3     1  UNL1        0.0374
      3 C          64.7849   91.6796   13.5900 C.3     1  UNL1        0.0410
      4 C          64.9351   91.6264   15.0815 C.3     1  UNL1        0.0672
      5 S          64.0220   90.7594   15.8968 S.3     1  UNL1       -0.0807
      6 C          62.9588   89.9457   15.2206 C.2     1  UNL1        0.1482
      7 N          62.0457   89.0787   16.0359 N.pl3   1  UNL1       -0.3380
      8 N          62.8086   89.9989   13.7291 N.2     1  UNL1       -0.2484
      9 C          63.7216   90.8658   12.9138 C.3     1  UNL1        0.1352
     10 C          63.5714   90.9190   11.4223 C.3     1  UNL1        0.1690
     11 O          64.4844   91.7860   10.6070 O.3     1  UNL1       -0.3494
     12 H          62.1443   89.0438   17.0149 H       1  UNL1        0.1442
     13 H          61.3479   88.5446   15.5921 H       1  UNL1        0.1442
     14 C          62.6584   90.0521   12.2375 C.ar    1  UNL1        0.0278
     15 C          61.4391   90.7254   11.6807 C.ar    1  UNL1        0.0021
     16 C          60.3758   89.9117   11.0045 C.ar    1  UNL1        0.0295
     17 C          60.5319   88.4245   10.8851 C.ar    1  UNL1        0.1424
     18 F          59.4686   87.6107   10.2089 F       1  UNL1       -0.2041
     19 C          61.7511   87.7512   11.4419 C.ar    1  UNL1        0.0590
     20 C          62.8144   88.5650   12.1182 C.ar    1  UNL1        0.1402
     21 F          64.0336   87.8917   12.6750 F       1  UNL1       -0.2044
     22 C          67.5670   96.7508    8.7196 C.3     1  UNL1        0.1537
     23 N          67.3889   95.3748    9.2895 N.ar    1  UNL1       -0.2476
     24 C          66.2259   94.9049   10.1121 C.ar    1  UNL1        0.0947
     25 C          66.4608   93.4668   10.4679 C.ar    1  UNL1        0.0442
     26 C          67.7689   93.0478    9.8653 C.ar    1  UNL1        0.1197
     27 N          68.3426   94.2270    9.1370 N.ar    1  UNL1       -0.1679
@<TRIPOS>BOND
     1    22    23    1
     2    23    24   ar
     3    24    25   ar
     4     1    25    1
     5     1     2    1
     6     3     2    1
     7     3     4    1
     8     4     5    1
     9     5     6    1
    10     6     7    1
    11     6     8    2
    12     8     9    1
    13     9    14    1
    14    14    15   ar
    15    15    16   ar
    16    16    17   ar
    17    17    18    1
    18    17    19   ar
    19    19    20   ar
    20    20    21    1
    21     9    10    1
    22    10    11    1
    23    25    26   ar
    24    26    27   ar
    25    27    23   ar
    26    11     1    1
    27     9     3    1
    28    20    14   ar
    29     7    12    1
    30     7    13    1
@<TRIPOS>MOLECULE
*****
 27 30 0 0 0
SMALL
GASTEIGER

@<TRIPOS>ATOM
      1 C          61.3943   86.7049   10.2223 C.3     1  UNL1        0.1406
      2 C          62.0775   87.7318   11.0758 C.3     1  UNL1        0.0374
      3 C          62.8805   87.3024   12.2677 C.3     1  UNL1        0.0410
      4 C          63.5639   88.3293   13.1212 C.3     1  UNL1        0.0672
      5 S          64.3669   87.8999   14.3131 S.3     1  UNL1       -0.0807
      6 C          64.4866   86.4435   14.6516 C.2     1  UNL1        0.1482
      7 N          65.2897   86.0140   15.8435 N.pl3   1  UNL1       -0.3380
      8 N          63.8033   85.4165   13.7981 N.2     1  UNL1       -0.2484
      9 C          63.0003   85.8460   12.6061 C.3     1  UNL1        0.1352
     10 C          62.3170   84.8190   11.7526 C.3     1  UNL1        0.1690
     11 O          61.5140   85.2485   10.5607 O.3     1  UNL1       -0.3494
     12 H          65.7381   86.6881   16.4037 H       1  UNL1        0.1442
     13 H          65.3683   85.0582   16.0657 H       1  UNL1        0.1442
     14 C          63.1200   84.3896   12.9446 C.ar    1  UNL1        0.0278
     15 C          64.0510   83.5117   12.1618 C.ar    1  UNL1        0.0021
     16 C          64.1707   82.0553   12.5002 C.ar    1  UNL1        0.0295
     17 C          63.3594   81.4767   13.6214 C.ar    1  UNL1        0.1424
     18 F          63.4791   80.0203   13.9599 F       1  UNL1       -0.2041
     19 C          62.4284   82.3546   14.4042 C.ar    1  UNL1        0.0590
     20 C          62.3087   83.8110   14.0657 C.ar    1  UNL1        0.1402
     21 F          61.3778   84.6888   14.8484 F       1  UNL1       -0.2044
     22 C          59.0374   89.7039    6.5709 C.3     1  UNL1        0.1537
     23 N          59.5079   88.5129    7.3520 N.ar    1  UNL1       -0.2476
     24 C          60.3658   88.5479    8.5819 C.ar    1  UNL1        0.0947
     25 C          60.5912   87.1343    9.0303 C.ar    1  UNL1        0.0442
     26 C          59.8726   86.2256    8.0775 C.ar    1  UNL1        0.1197
     27 N          59.2030   87.0776    7.0402 N.ar    1  UNL1       -0.1679
@<TRIPOS>BOND
     1    22    23    1
     2    23    24   ar
     3    24    25   ar
     4     1    25    1
     5     1     2    1
     6     3     2    1
     7     3     4    1
     8     4     5    1
     9     5     6    1
    10     6     7    1
    11     6     8    2
    12     8     9    1
    13     9    14    1
    14    14    15   ar
    15    15    16   ar
    16    16    17   ar
    17    17    18    1
    18    17    19   ar
    19    19    20   ar
    20    20    21    1
    21     9    10    1
    22    10    11    1
    23    25    26   ar
    24    26    27   ar
    25    27    23   ar
    26    11     1    1
    27     9     3    1
    28    20    14   ar
    29     7    12    1
    30     7    13    1
@<TRIPOS>MOLECULE
*****
 27 30 0 0 0
SMALL
GASTEIGER

@<TRIPOS>ATOM
      1 C          63.9280   88.7035   13.6445 C.3     1  UNL1        0.1406
      2 C          64.1465   87.4083   14.3689 C.3     1  UNL1        0.0374
      3 C          63.7005   86.1175   13.7485 C.3     1  UNL1        0.0410
      4 C          63.9189   84.8223   14.4730 C.3     1  UNL1        0.0672
      5 S          63.4730   83.5315   13.8525 S.3     1  UNL1       -0.0807
      6 C          62.8086   83.5359   12.5077 C.2     1  UNL1        0.1482
      7 N          62.3627   82.2450   11.8873 N.pl3   1  UNL1       -0.3380
      8 N          62.5902   84.8310   11.7833 N.2     1  UNL1       -0.2484
      9 C          63.0361   86.1219   12.4037 C.3     1  UNL1        0.1352
     10 C          62.8177   87.4170   11.6793 C.3     1  UNL1        0.1690
     11 O          63.2636   88.7078   12.2997 O.3     1  UNL1       -0.3494
     12 H          62.5061   81.3949   12.3628 H       1  UNL1        0.1442
     13 H          61.9266   82.2478   11.0046 H       1  UNL1        0.1442
     14 C          62.3717   86.1262   11.0589 C.ar    1  UNL1        0.0278
     15 C          63.0752   85.5357    9.8729 C.ar    1  UNL1        0.0021
     16 C          62.4109   85.5401    8.5280 C.ar    1  UNL1        0.0295
     17 C          61.0430   86.1350    8.3692 C.ar    1  UNL1        0.1424
     18 F          60.3786   86.1393    7.0244 F       1  UNL1       -0.2041
     19 C          60.3396   86.7254    9.5551 C.ar    1  UNL1        0.0590
     20 C          61.0040   86.7210   10.9000 C.ar    1  UNL1        0.1402
     21 F          60.3005   87.3115   12.0859 F       1  UNL1       -0.2044
     22 C          66.4520   93.2656   14.4798 C.3     1  UNL1        0.1537
     23 N          65.5341   92.0913   14.6488 N.ar    1  UNL1       -0.2476
     24 C          65.4028   90.9320   13.7061 C.ar    1  UNL1        0.0947
     25 C          64.3740   89.9943   14.2649 C.ar    1  UNL1        0.0442
     26 C          63.8693   90.5742   15.5530 C.ar    1  UNL1        0.1197
     27 N          64.5863   91.8702   15.7903 N.ar    1  UNL1       -0.1679
@<TRIPOS>BOND
     1    22    23    1
     2    23    24   ar
     3    24    25   ar
     4     1    25    1
     5     1     2    1
     6     3     2    1
     7     3     4    1
     8     4     5    1
     9     5     6    1
    10     6     7    1
    11     6     8    2
    12     8     9    1
    13     9    14    1
    14    14    15   ar
    15    15    16   ar
    16    16    17   ar
    17    17    18    1
    18    17    19   ar
    19    19    20   ar
    20    20    21    1
    21     9    10    1
    22    10    11    1
    23    25    26   ar
    24    26    27   ar
    25    27    23   ar
    26    11     1    1
    27     9     3    1
    28    20    14   ar
    29     7    12    1
    30     7    13    1
@<TRIPOS>MOLECULE
*****
 27 30 0 0 0
SMALL
GASTEIGER

@<TRIPOS>ATOM
      1 C          61.8032   86.9167   10.7739 C.3     1  UNL1        0.1406
      2 C          62.5977   87.3711   11.9623 C.3     1  UNL1        0.0374
      3 C          63.2682   86.3620   12.8465 C.3     1  UNL1        0.0410
      4 C          64.0627   86.8164   14.0349 C.3     1  UNL1        0.0672
      5 S          64.7333   85.8073   14.9192 S.3     1  UNL1       -0.0807
      6 C          64.6094   84.3437   14.6150 C.2     1  UNL1        0.1482
      7 N          65.2801   83.3345   15.4994 N.pl3   1  UNL1       -0.3380
      8 N          63.8150   83.8892   13.4267 N.2     1  UNL1       -0.2484
      9 C          63.1444   84.8984   12.5424 C.3     1  UNL1        0.1352
     10 C          62.3499   84.4439   11.3540 C.3     1  UNL1        0.1690
     11 O          61.6794   85.4531   10.4698 O.3     1  UNL1       -0.3494
     12 H          65.8015   83.6328   16.2793 H       1  UNL1        0.1442
     13 H          65.1988   82.3739   15.2998 H       1  UNL1        0.1442
     14 C          63.0205   83.4348   12.2382 C.ar    1  UNL1        0.0278
     15 C          62.1818   82.5545   13.1168 C.ar    1  UNL1        0.0021
     16 C          62.0579   81.0909   12.8127 C.ar    1  UNL1        0.0295
     17 C          62.7728   80.5076   11.6299 C.ar    1  UNL1        0.1424
     18 F          62.6489   79.0439   11.3258 F       1  UNL1       -0.2041
     19 C          63.6114   81.3878   10.7514 C.ar    1  UNL1        0.0590
     20 C          63.7353   82.8514   11.0556 C.ar    1  UNL1        0.1402
     21 F          64.5739   83.7316   10.1771 F       1  UNL1       -0.2044
     22 C          59.1423   89.1079    6.7740 C.3     1  UNL1        0.1537
     23 N          59.9095   88.9330    8.0510 N.ar    1  UNL1       -0.2476
     24 C          60.4291   87.6361    8.5968 C.ar    1  UNL1        0.0947
     25 C          61.1326   87.9258    9.8896 C.ar    1  UNL1        0.0442
     26 C          61.0477   89.4019   10.1428 C.ar    1  UNL1        0.1197
     27 N          60.2918   90.0243    9.0065 N.ar    1  UNL1       -0.1679
@<TRIPOS>BOND
     1    22    23    1
     2    23    24   ar
     3    24    25   ar
     4     1    25    1
     5     1     2    1
     6     3     2    1
     7     3     4    1
     8     4     5    1
     9     5     6    1
    10     6     7    1
    11     6     8    2
    12     8     9    1
    13     9    14    1
    14    14    15   ar
    15    15    16   ar
    16    16    17   ar
    17    17    18    1
    18    17    19   ar
    19    19    20   ar
    20    20    21    1
    21     9    10    1
    22    10    11    1
    23    25    26   ar
    24    26    27   ar
    25    27    23   ar
    26    11     1    1
    27     9     3    1
    28    20    14   ar
    29     7    12    1
    30     7    13    1
