@<TRIPOS>MOLECULE
*****
 12 13 0 0 0
SMALL
GASTEIGER

@<TRIPOS>ATOM
      1 CA         62.2905   82.3730   14.1399 C.ar    1  UNL1        0.0739
      2 C          62.5766   83.4282   13.1128 C.ar    1  UNL1        0.0571
      3 C          63.2061   84.5967   13.8116 C.ar    1  UNL1        0.1624
      4 O          63.7719   85.9710   13.6087 O.2     1  UNL1       -0.4489
      5 C          64.2246   86.4874   14.9422 C.ar    1  UNL1        0.1812
      6 C          63.9385   85.4323   15.9693 C.ar    1  UNL1        0.0607
      7 C          63.3090   84.2637   15.2706 C.ar    1  UNL1        0.0949
      8 N          62.7432   82.8895   15.4735 N.ar    1  UNL1       -0.3497
      9 H          62.6800   82.4106   16.3313 H       1  UNL1        0.1661
     10 O          60.2646   80.7600   14.3490 O.co2   1  UNL1       -0.5431
     11 C          61.6621   81.0363   13.8792 C.2     1  UNL1        0.0885
     12 OXT        62.4311   79.9755   13.1487 O.co2   1  UNL1       -0.5431
@<TRIPOS>UNITY_ATOM_ATTR
10 1
charge -1
@<TRIPOS>BOND
     1    10    11   ar
     2    11    12   ar
     3    11     1    1
     4     1     2   ar
     5     2     3   ar
     6     3     4   ar
     7     4     5   ar
     8     5     6   ar
     9     6     7   ar
    10     7     8   ar
    11     8     1   ar
    12     7     3   ar
    13     8     9    1
@<TRIPOS>MOLECULE
*****
 12 13 0 0 0
SMALL
GASTEIGER

@<TRIPOS>ATOM
      1 CA         62.6106   84.1970   15.2072 C.ar    1  UNL1        0.0739
      2 C          62.7115   84.3718   13.7208 C.ar    1  UNL1        0.0571
      3 C          62.7274   83.0093   13.0938 C.ar    1  UNL1        0.1624
      4 O          62.7995   82.2753   11.7876 O.2     1  UNL1       -0.4489
      5 C          62.7530   80.8047   12.0792 C.ar    1  UNL1        0.1812
      6 C          62.6521   80.6297   13.5655 C.ar    1  UNL1        0.0607
      7 C          62.6362   81.9923   14.1926 C.ar    1  UNL1        0.0949
      8 N          62.5641   82.7262   15.4987 N.ar    1  UNL1       -0.3497
      9 H          62.4978   82.3149   16.3908 H       1  UNL1        0.1661
     10 O          63.8385   85.9150   16.7206 O.co2   1  UNL1       -0.5431
     11 C          62.5643   85.2991   16.2235 C.2     1  UNL1        0.0885
     12 OXT        61.2438   85.7856   16.7428 O.co2   1  UNL1       -0.5431
@<TRIPOS>UNITY_ATOM_ATTR
10 1
charge -1
@<TRIPOS>BOND
     1    10    11   ar
     2    11    12   ar
     3    11     1    1
     4     1     2   ar
     5     2     3   ar
     6     3     4   ar
     7     4     5   ar
     8     5     6   ar
     9     6     7   ar
    10     7     8   ar
    11     8     1   ar
    12     7     3   ar
    13     8     9    1
@<TRIPOS>MOLECULE
*****
 12 13 0 0 0
SMALL
GASTEIGER

@<TRIPOS>ATOM
      1 CA         64.4554   90.9737   14.3859 C.ar    1  UNL1        0.0739
      2 C          65.8522   91.5197   14.4130 C.ar    1  UNL1        0.0571
      3 C          66.1400   92.1239   13.0706 C.ar    1  UNL1        0.1624
      4 O          67.1812   92.8347   12.2578 O.2     1  UNL1       -0.4489
      5 C          66.6056   93.1015   10.8985 C.ar    1  UNL1        0.1812
      6 C          65.2087   92.5555   10.8713 C.ar    1  UNL1        0.0607
      7 C          64.9210   91.9513   12.2137 C.ar    1  UNL1        0.0949
      8 N          63.8798   91.2405   13.0266 N.ar    1  UNL1       -0.3497
      9 H          62.9772   90.9926   12.7215 H       1  UNL1        0.1661
     10 O          63.4658   88.8133   15.4360 O.co2   1  UNL1       -0.5431
     11 C          63.7567   90.2824   15.5189 C.2     1  UNL1        0.0885
     12 OXT        63.3490   91.0602   16.7351 O.co2   1  UNL1       -0.5431
@<TRIPOS>UNITY_ATOM_ATTR
10 1
charge -1
@<TRIPOS>BOND
     1    10    11   ar
     2    11    12   ar
     3    11     1    1
     4     1     2   ar
     5     2     3   ar
     6     3     4   ar
     7     4     5   ar
     8     5     6   ar
     9     6     7   ar
    10     7     8   ar
    11     8     1   ar
    12     7     3   ar
    13     8     9    1
@<TRIPOS>MOLECULE
*****
 12 13 0 0 0
SMALL
GASTEIGER

@<TRIPOS>ATOM
      1 CA         63.5062   84.3703   15.0408 C.ar    1  UNL1        0.0739
      2 C          64.2920   83.6412   13.9916 C.ar    1  UNL1        0.0571
      3 C          63.5582   82.3762   13.6582 C.ar    1  UNL1        0.1624
      4 O          63.5903   81.1438   12.8038 O.2     1  UNL1       -0.4489
      5 C          62.3708   80.3293   13.1189 C.ar    1  UNL1        0.1812
      6 C          61.5849   81.0584   14.1682 C.ar    1  UNL1        0.0607
      7 C          62.3187   82.3234   14.5015 C.ar    1  UNL1        0.0949
      8 N          62.2866   83.5558   15.3560 N.ar    1  UNL1       -0.3497
      9 H          61.5877   83.7891   16.0090 H       1  UNL1        0.1661
     10 O          64.7626   86.6415   14.9277 O.co2   1  UNL1       -0.5431
     11 C          63.8751   85.6833   15.6652 C.2     1  UNL1        0.0885
     12 OXT        63.3565   86.0380   17.0274 O.co2   1  UNL1       -0.5431
@<TRIPOS>UNITY_ATOM_ATTR
10 1
charge -1
@<TRIPOS>BOND
     1    10    11   ar
     2    11    12   ar
     3    11     1    1
     4     1     2   ar
     5     2     3   ar
     6     3     4   ar
     7     4     5   ar
     8     5     6   ar
     9     6     7   ar
    10     7     8   ar
    11     8     1   ar
    12     7     3   ar
    13     8     9    1
@<TRIPOS>MOLECULE
*****
 12 13 0 0 0
SMALL
GASTEIGER

@<TRIPOS>ATOM
      1 CA         66.2093   93.1692   11.9176 C.ar    1  UNL1        0.0739
      2 C          66.7860   92.7363   10.6023 C.ar    1  UNL1        0.0571
      3 C          67.0257   93.9641    9.7746 C.ar    1  UNL1        0.1624
      4 O          67.5302   94.4553    8.4501 O.2     1  UNL1       -0.4489
      5 C          67.4134   95.9506    8.4353 C.ar    1  UNL1        0.1812
      6 C          66.8366   96.3836    9.7506 C.ar    1  UNL1        0.0607
      7 C          66.5970   95.1558   10.5783 C.ar    1  UNL1        0.0949
      8 N          66.0925   94.6646   11.9027 N.ar    1  UNL1       -0.3497
      9 H          65.7456   95.2252   12.6339 H       1  UNL1        0.1661
     10 O          66.8763   91.6216   13.8949 O.co2   1  UNL1       -0.5431
     11 C          65.8181   92.2655   13.0490 C.2     1  UNL1        0.0885
     12 OXT        64.3686   92.0055   13.3345 O.co2   1  UNL1       -0.5431
@<TRIPOS>UNITY_ATOM_ATTR
10 1
charge -1
@<TRIPOS>BOND
     1    10    11   ar
     2    11    12   ar
     3    11     1    1
     4     1     2   ar
     5     2     3   ar
     6     3     4   ar
     7     4     5   ar
     8     5     6   ar
     9     6     7   ar
    10     7     8   ar
    11     8     1   ar
    12     7     3   ar
    13     8     9    1
@<TRIPOS>MOLECULE
*****
 12 13 0 0 0
SMALL
GASTEIGER

@<TRIPOS>ATOM
      1 CA         63.1232   85.5793   15.9933 C.ar    1  UNL1        0.0739
      2 C          64.3508   85.3491   15.1625 C.ar    1  UNL1        0.0571
      3 C          64.1043   84.1521   14.2928 C.ar    1  UNL1        0.1624
      4 O          64.7106   83.2701   13.2419 O.2     1  UNL1       -0.4489
      5 C          63.7053   82.2154   12.8856 C.ar    1  UNL1        0.1812
      6 C          62.4777   82.4455   13.7163 C.ar    1  UNL1        0.0607
      7 C          62.7243   83.6425   14.5860 C.ar    1  UNL1        0.0949
      8 N          62.1179   84.5245   15.6369 N.ar    1  UNL1       -0.3497
      9 H          61.2182   84.4281   16.0247 H       1  UNL1        0.1661
     10 O          63.2549   88.0920   16.6404 O.co2   1  UNL1       -0.5431
     11 C          62.9341   86.6723   17.0029 C.2     1  UNL1        0.0885
     12 OXT        62.4242   86.3456   18.3753 O.co2   1  UNL1       -0.5431
@<TRIPOS>UNITY_ATOM_ATTR
10 1
charge -1
@<TRIPOS>BOND
     1    10    11   ar
     2    11    12   ar
     3    11     1    1
     4     1     2   ar
     5     2     3   ar
     6     3     4   ar
     7     4     5   ar
     8     5     6   ar
     9     6     7   ar
    10     7     8   ar
    11     8     1   ar
    12     7     3   ar
    13     8     9    1
@<TRIPOS>MOLECULE
*****
 12 13 0 0 0
SMALL
GASTEIGER

@<TRIPOS>ATOM
      1 CA         60.3237   88.4549    8.9500 C.ar    1  UNL1        0.0739
      2 C          60.8907   87.4393    9.8972 C.ar    1  UNL1        0.0571
      3 C          61.8039   88.1527   10.8497 C.ar    1  UNL1        0.1624
      4 O          62.7186   87.9660   12.0237 O.2     1  UNL1       -0.4489
      5 C          63.2813   89.3071   12.3907 C.ar    1  UNL1        0.1812
      6 C          62.7144   90.3227   11.4436 C.ar    1  UNL1        0.0607
      7 C          61.8012   89.6093   10.4911 C.ar    1  UNL1        0.0949
      8 N          60.8865   89.7960    9.3171 N.ar    1  UNL1       -0.3497
      9 H          60.6899   90.6491    8.8666 H       1  UNL1        0.1661
     10 O          58.5564   86.9132    7.8322 O.co2   1  UNL1       -0.5431
     11 C          59.3628   88.1780    7.8321 C.2     1  UNL1        0.0885
     12 OXT        59.2082   89.1659    6.7139 O.co2   1  UNL1       -0.5431
@<TRIPOS>UNITY_ATOM_ATTR
10 1
charge -1
@<TRIPOS>BOND
     1    10    11   ar
     2    11    12   ar
     3    11     1    1
     4     1     2   ar
     5     2     3   ar
     6     3     4   ar
     7     4     5   ar
     8     5     6   ar
     9     6     7   ar
    10     7     8   ar
    11     8     1   ar
    12     7     3   ar
    13     8     9    1
@<TRIPOS>MOLECULE
*****
 12 13 0 0 0
SMALL
GASTEIGER

@<TRIPOS>ATOM
      1 CA         65.2638   92.0262   12.7390 C.ar    1  UNL1        0.0739
      2 C          64.4236   91.0914   13.5576 C.ar    1  UNL1        0.0571
      3 C          63.3669   90.5141   12.6632 C.ar    1  UNL1        0.1624
      4 O          62.1945   89.5795   12.6164 O.2     1  UNL1       -0.4489
      5 C          61.6571   89.5799   11.2160 C.ar    1  UNL1        0.1812
      6 C          62.4972   90.5147   10.3973 C.ar    1  UNL1        0.0607
      7 C          63.5540   91.0920   11.2917 C.ar    1  UNL1        0.0949
      8 N          64.7263   92.0266   11.3385 N.ar    1  UNL1       -0.3497
      9 H          65.0808   92.5486   10.5828 H       1  UNL1        0.1661
     10 O          67.8325   92.3555   12.9471 O.co2   1  UNL1       -0.5431
     11 C          66.4357   92.8210   13.2338 C.2     1  UNL1        0.0885
     12 OXT        66.2108   94.0815   14.0153 O.co2   1  UNL1       -0.5431
@<TRIPOS>UNITY_ATOM_ATTR
10 1
charge -1
@<TRIPOS>BOND
     1    10    11   ar
     2    11    12   ar
     3    11     1    1
     4     1     2   ar
     5     2     3   ar
     6     3     4   ar
     7     4     5   ar
     8     5     6   ar
     9     6     7   ar
    10     7     8   ar
    11     8     1   ar
    12     7     3   ar
    13     8     9    1
@<TRIPOS>MOLECULE
*****
 12 13 0 0 0
SMALL
GASTEIGER

@<TRIPOS>ATOM
      1 CA         62.7496   84.2838   13.1041 C.ar    1  UNL1        0.0739
      2 C          63.4468   83.4841   12.0436 C.ar    1  UNL1        0.0571
      3 C          63.2459   84.1806   10.7305 C.ar    1  UNL1        0.1624
      4 O          63.5526   84.1168    9.2635 O.2     1  UNL1       -0.4489
      5 C          62.9208   85.3076    8.6057 C.ar    1  UNL1        0.1812
      6 C          62.2236   86.1074    9.6660 C.ar    1  UNL1        0.0607
      7 C          62.4245   85.4109   10.9792 C.ar    1  UNL1        0.0949
      8 N          62.1178   85.4747   12.4461 N.ar    1  UNL1       -0.3497
      9 H          61.5938   86.1752   12.8978 H       1  UNL1        0.1661
     10 O          61.8930   84.8086   15.5000 O.co2   1  UNL1       -0.5431
     11 C          62.6940   83.9512   14.5656 C.2     1  UNL1        0.0885
     12 OXT        63.4395   82.7611   15.0928 O.co2   1  UNL1       -0.5431
@<TRIPOS>UNITY_ATOM_ATTR
10 1
charge -1
@<TRIPOS>BOND
     1    10    11   ar
     2    11    12   ar
     3    11     1    1
     4     1     2   ar
     5     2     3   ar
     6     3     4   ar
     7     4     5   ar
     8     5     6   ar
     9     6     7   ar
    10     7     8   ar
    11     8     1   ar
    12     7     3   ar
    13     8     9    1
