@<TRIPOS>MOLECULE
*****
 38 42 0 0 0
SMALL
GASTEIGER

@<TRIPOS>ATOM
      1 C          61.1089   90.6619   10.6898 C.3     1  UNL1        0.0553
      2 C          61.7558   89.5058   11.3933 C.ar    1  UNL1        0.0935
      3 N          61.5965   88.0570   11.0387 N.ar    1  UNL1       -0.1727
      4 N          62.4178   87.2512   12.0011 N.ar    1  UNL1       -0.2558
      5 C          63.0847   88.2019   12.9505 C.ar    1  UNL1        0.0704
      6 C          64.0000   87.8254   14.0776 C.3     1  UNL1        0.0531
      7 C          62.6756   89.5953   12.5749 C.ar    1  UNL1        0.0792
      8 C          62.5491   85.7570   12.0122 C.3     1  UNL1        0.1083
      9 C          62.4359   85.0037   13.3044 C.3     1  UNL1        0.0459
     10 C          62.5672   83.5095   13.3155 C.3     1  UNL1        0.0954
     11 N          62.8118   82.7686   12.0344 N.am    1  UNL1       -0.2783
     12 C          62.9432   81.2743   12.0455 C.2     1  UNL1        0.2397
     13 O          63.1878   80.5334   10.7644 O.2     1  UNL1       -0.2734
     14 C          62.9251   83.5219   10.7422 C.3     1  UNL1        0.0954
     15 C          62.7938   85.0161   10.7312 C.3     1  UNL1        0.0459
     16 C          62.8299   80.5211   13.3377 C.3     1  UNL1        0.1286
     17 C          61.4896   80.0431   13.8121 C.3     1  UNL1        0.0267
     18 N          64.0569   80.2459   14.1555 N.3     1  UNL1       -0.3150
     19 H          63.7969   79.7278   14.9948 H       1  UNL1        0.1192
     20 H          64.4927   81.1287   14.4223 H       1  UNL1        0.1192
     21 N          63.1099   90.8568   13.2603 N.pl3   1  UNL1       -0.2806
     22 H          62.4428   91.4347   13.6967 H       1  UNL1        0.1551
     23 C          64.5605   91.2381   13.2810 C.ar    1  UNL1        0.2208
     24 N          65.3915   90.9607   14.4985 N.ar    1  UNL1       -0.2111
     25 C          66.8421   91.3419   14.5191 C.ar    1  UNL1        0.1147
     26 C          67.4616   92.0005   13.3222 C.ar    1  UNL1        0.0946
     27 CL         68.9122   92.3817   13.3429 Cl      1  UNL1       -0.0790
     28 C          66.6305   92.2779   12.1047 C.ar    1  UNL1        0.0992
     29 N          65.1800   91.8966   12.0841 N.ar    1  UNL1       -0.2126
     30 C          67.2500   92.9364   10.9078 C.ar    1  UNL1        0.0572
     31 C          68.3421   92.3644   10.0533 C.ar    1  UNL1        0.1235
     32 N          68.6532   93.3571    8.9727 N.ar    1  UNL1       -0.1634
     33 N          67.7534   94.5427    9.1593 N.ar    1  UNL1       -0.2281
     34 C          67.6117   95.8254    8.3948 C.ar    1  UNL1        0.1004
     35 C          66.6027   96.8480    8.8261 C.ar    1  UNL1        0.0207
     36 C          65.7355   96.5880   10.0221 C.ar    1  UNL1        0.0031
     37 C          65.8772   95.3053   10.7867 C.ar    1  UNL1        0.0193
     38 C          66.8861   94.2827   10.3553 C.ar    1  UNL1        0.0858
@<TRIPOS>BOND
     1     1     2    1
     2     2     3   ar
     3     3     4   ar
     4     4     8    1
     5     8     9    1
     6     9    10    1
     7    10    11    1
     8    11    12   am
     9    12    13    2
    10    12    16    1
    11    16    17    1
    12    16    18    1
    13    11    14    1
    14    14    15    1
    15     4     5   ar
    16     5     6    1
    17     5     7   ar
    18     7    21    1
    19    21    23    1
    20    23    24   ar
    21    24    25   ar
    22    25    26   ar
    23    26    27    1
    24    26    28   ar
    25    28    30    1
    26    30    31   ar
    27    31    32   ar
    28    32    33   ar
    29    33    34   ar
    30    34    35   ar
    31    35    36   ar
    32    36    37   ar
    33    37    38   ar
    34    28    29   ar
    35     7     2   ar
    36    29    23   ar
    37    15     8    1
    38    38    30   ar
    39    38    33   ar
    40    18    19    1
    41    18    20    1
    42    21    22    1
@<TRIPOS>MOLECULE
*****
 38 42 0 0 0
SMALL
GASTEIGER

@<TRIPOS>ATOM
      1 C          62.4083   86.7220   18.3825 C.3     1  UNL1        0.0553
      2 C          63.0420   87.0816   17.0714 C.ar    1  UNL1        0.0935
      3 N          63.1853   88.4659   16.5116 N.ar    1  UNL1       -0.1727
      4 N          63.8757   88.3599   15.1840 N.ar    1  UNL1       -0.2558
      5 C          64.1590   86.9102   14.9233 C.ar    1  UNL1        0.0704
      6 C          64.8383   86.3490   13.7095 C.3     1  UNL1        0.0531
      7 C          63.6438   86.1201   16.0898 C.ar    1  UNL1        0.0792
      8 C          64.2219   89.5030   14.2766 C.3     1  UNL1        0.1083
      9 C          65.3157   90.4568   14.6557 C.3     1  UNL1        0.0459
     10 C          65.6619   91.6000   13.7482 C.3     1  UNL1        0.0954
     11 N          64.9142   91.7891   12.4616 N.am    1  UNL1       -0.2783
     12 C          65.2604   92.9323   11.5541 C.2     1  UNL1        0.2397
     13 O          64.5128   93.1215   10.2675 O.2     1  UNL1       -0.2734
     14 C          63.8204   90.8352   12.0825 C.3     1  UNL1        0.0954
     15 C          63.4743   89.6922   12.9901 C.3     1  UNL1        0.0459
     16 C          66.3542   93.8861   11.9332 C.3     1  UNL1        0.1286
     17 C          66.5484   94.2718   13.3697 C.3     1  UNL1        0.0267
     18 N          67.2538   94.4542   10.8759 N.3     1  UNL1       -0.3150
     19 H          67.9345   95.0789   11.3083 H       1  UNL1        0.1192
     20 H          66.6962   94.9752   10.1991 H       1  UNL1        0.1192
     21 N          63.7174   84.6302   16.2470 N.pl3   1  UNL1       -0.2806
     22 H          63.9340   84.2379   17.1236 H       1  UNL1        0.1551
     23 C          63.4611   83.7380   15.0688 C.ar    1  UNL1        0.2208
     24 N          63.2532   82.2667   15.2733 N.ar    1  UNL1       -0.2111
     25 C          62.9969   81.3745   14.0951 C.ar    1  UNL1        0.1147
     26 C          62.9485   81.9537   12.7122 C.ar    1  UNL1        0.0946
     27 CL         62.6922   81.0615   11.5340 Cl      1  UNL1       -0.0790
     28 C          63.1565   83.4251   12.5077 C.ar    1  UNL1        0.0992
     29 N          63.4128   84.3172   13.6859 N.ar    1  UNL1       -0.2126
     30 C          63.1081   84.0043   11.1248 C.ar    1  UNL1        0.0572
     31 C          63.8399   83.4820    9.9241 C.ar    1  UNL1        0.1235
     32 N          63.5035   84.3624    8.7572 N.ar    1  UNL1       -0.1634
     33 N          62.5639   85.4288    9.2367 N.ar    1  UNL1       -0.2281
     34 C          61.8992   86.5727    8.5299 C.ar    1  UNL1        0.1004
     35 C          60.9902   87.4954    9.2865 C.ar    1  UNL1        0.0207
     36 C          60.7459   87.2741   10.7498 C.ar    1  UNL1        0.0031
     37 C          61.4105   86.1301   11.4566 C.ar    1  UNL1        0.0193
     38 C          62.3195   85.2075   10.7000 C.ar    1  UNL1        0.0858
@<TRIPOS>BOND
     1     1     2    1
     2     2     3   ar
     3     3     4   ar
     4     4     8    1
     5     8     9    1
     6     9    10    1
     7    10    11    1
     8    11    12   am
     9    12    13    2
    10    12    16    1
    11    16    17    1
    12    16    18    1
    13    11    14    1
    14    14    15    1
    15     4     5   ar
    16     5     6    1
    17     5     7   ar
    18     7    21    1
    19    21    23    1
    20    23    24   ar
    21    24    25   ar
    22    25    26   ar
    23    26    27    1
    24    26    28   ar
    25    28    30    1
    26    30    31   ar
    27    31    32   ar
    28    32    33   ar
    29    33    34   ar
    30    34    35   ar
    31    35    36   ar
    32    36    37   ar
    33    37    38   ar
    34    28    29   ar
    35     7     2   ar
    36    29    23   ar
    37    15     8    1
    38    38    30   ar
    39    38    33   ar
    40    18    19    1
    41    18    20    1
    42    21    22    1
@<TRIPOS>MOLECULE
*****
 38 42 0 0 0
SMALL
GASTEIGER

@<TRIPOS>ATOM
      1 C          63.3234   90.5954   11.8305 C.3     1  UNL1        0.0553
      2 C          63.3963   89.4161   12.7546 C.ar    1  UNL1        0.0935
      3 N          63.3977   87.9733   12.3444 N.ar    1  UNL1       -0.1727
      4 N          63.4828   87.1380   13.5875 N.ar    1  UNL1       -0.2558
      5 C          63.5340   88.0646   14.7660 C.ar    1  UNL1        0.0704
      6 C          63.6230   87.6552   16.2062 C.3     1  UNL1        0.0531
      7 C          63.4805   89.4726   14.2513 C.ar    1  UNL1        0.0792
      8 C          63.5116   85.6393   13.6425 C.3     1  UNL1        0.1083
      9 C          62.4230   84.8436   12.9853 C.3     1  UNL1        0.0459
     10 C          62.4518   83.3448   13.0403 C.3     1  UNL1        0.0954
     11 N          63.5693   82.6419   13.7524 N.am    1  UNL1       -0.2783
     12 C          63.5981   81.1431   13.8073 C.2     1  UNL1        0.2397
     13 O          64.7156   80.4401   14.5194 O.2     1  UNL1       -0.2734
     14 C          64.6579   83.4375   14.4095 C.3     1  UNL1        0.0954
     15 C          64.6290   84.9363   14.3545 C.3     1  UNL1        0.0459
     16 C          62.5095   80.3475   13.1502 C.3     1  UNL1        0.1286
     17 C          61.1778   80.1990   13.8242 C.3     1  UNL1        0.0267
     18 N          62.7526   79.7002   11.8190 N.3     1  UNL1       -0.3150
     19 H          61.9119   79.2041   11.5235 H       1  UNL1        0.1192
     20 H          63.5266   79.0406   11.8979 H       1  UNL1        0.1192
     21 N          63.5067   90.7183   15.0864 N.pl3   1  UNL1       -0.2806
     22 H          62.7431   90.9372   15.6679 H       1  UNL1        0.1551
     23 C          64.6964   91.6305   15.0356 C.ar    1  UNL1        0.2208
     24 N          65.5711   91.7902   16.2437 N.ar    1  UNL1       -0.2111
     25 C          66.7607   92.7024   16.1929 C.ar    1  UNL1        0.1147
     26 C          67.0757   93.4549   14.9340 C.ar    1  UNL1        0.0946
     27 CL         68.2653   94.3671   14.8833 Cl      1  UNL1       -0.0790
     28 C          66.2009   93.2951   13.7259 C.ar    1  UNL1        0.0992
     29 N          65.0114   92.3829   13.7768 N.ar    1  UNL1       -0.2126
     30 C          66.5159   94.0475   12.4671 C.ar    1  UNL1        0.0572
     31 C          66.2370   95.4996   12.2147 C.ar    1  UNL1        0.1235
     32 N          66.7138   95.8294   10.8313 N.ar    1  UNL1       -0.1634
     33 N          67.2874   94.5812   10.2287 N.ar    1  UNL1       -0.2281
     34 C          67.9053   94.3052    8.8901 C.ar    1  UNL1        0.1004
     35 C          68.4009   92.9279    8.5625 C.ar    1  UNL1        0.0207
     36 C          68.2786   91.8266    9.5735 C.ar    1  UNL1        0.0031
     37 C          67.6607   92.1026   10.9122 C.ar    1  UNL1        0.0193
     38 C          67.1651   93.4800   11.2398 C.ar    1  UNL1        0.0858
@<TRIPOS>BOND
     1     1     2    1
     2     2     3   ar
     3     3     4   ar
     4     4     8    1
     5     8     9    1
     6     9    10    1
     7    10    11    1
     8    11    12   am
     9    12    13    2
    10    12    16    1
    11    16    17    1
    12    16    18    1
    13    11    14    1
    14    14    15    1
    15     4     5   ar
    16     5     6    1
    17     5     7   ar
    18     7    21    1
    19    21    23    1
    20    23    24   ar
    21    24    25   ar
    22    25    26   ar
    23    26    27    1
    24    26    28   ar
    25    28    30    1
    26    30    31   ar
    27    31    32   ar
    28    32    33   ar
    29    33    34   ar
    30    34    35   ar
    31    35    36   ar
    32    36    37   ar
    33    37    38   ar
    34    28    29   ar
    35     7     2   ar
    36    29    23   ar
    37    15     8    1
    38    38    30   ar
    39    38    33   ar
    40    18    19    1
    41    18    20    1
    42    21    22    1
@<TRIPOS>MOLECULE
*****
 38 42 0 0 0
SMALL
GASTEIGER

@<TRIPOS>ATOM
      1 C          58.9726   89.2148   12.5287 C.3     1  UNL1        0.0553
      2 C          60.3520   89.7808   12.3651 C.ar    1  UNL1        0.0935
      3 N          61.3203   90.0773   13.4717 N.ar    1  UNL1       -0.1727
      4 N          62.5722   90.6294   12.8566 N.ar    1  UNL1       -0.2558
      5 C          62.3775   90.6741   11.3700 C.ar    1  UNL1        0.0704
      6 C          63.3790   91.1582   10.3638 C.3     1  UNL1        0.0531
      7 C          61.0054   90.1496   11.0662 C.ar    1  UNL1        0.0792
      8 C          63.8026   91.0611   13.5980 C.3     1  UNL1        0.1083
      9 C          64.9990   91.5568   12.8412 C.3     1  UNL1        0.0459
     10 C          66.2295   91.9884   13.5827 C.3     1  UNL1        0.0954
     11 N          66.2634   91.9243   15.0809 N.am    1  UNL1       -0.2783
     12 C          67.4939   92.3560   15.8223 C.2     1  UNL1        0.2397
     13 O          67.5279   92.2919   17.3206 O.2     1  UNL1       -0.2734
     14 C          65.0670   91.4286   15.8377 C.3     1  UNL1        0.0954
     15 C          63.8366   90.9970   15.0962 C.3     1  UNL1        0.0459
     16 C          68.6903   92.8517   15.0655 C.3     1  UNL1        0.1286
     17 C          69.4596   94.0360   15.5710 C.3     1  UNL1        0.0267
     18 N          69.1175   92.1631   13.8032 N.3     1  UNL1       -0.3150
     19 H          69.9419   92.6289   13.4241 H       1  UNL1        0.1192
     20 H          68.3603   92.2034   13.1210 H       1  UNL1        0.1192
     21 N          60.3939   90.0172    9.7029 N.pl3   1  UNL1       -0.2806
     22 H          59.9690   90.7960    9.2762 H       1  UNL1        0.1551
     23 C          60.4298   88.6981    8.9897 C.ar    1  UNL1        0.2208
     24 N          59.4918   88.4366    7.8487 N.ar    1  UNL1       -0.2111
     25 C          59.5277   87.1176    7.1355 C.ar    1  UNL1        0.1147
     26 C          60.5016   86.0599    7.5632 C.ar    1  UNL1        0.0946
     27 CL         60.5375   84.7408    6.8500 Cl      1  UNL1       -0.0790
     28 C          61.4397   86.3214    8.7042 C.ar    1  UNL1        0.0992
     29 N          61.4037   87.6405    9.4174 N.ar    1  UNL1       -0.2126
     30 C          62.4136   85.2638    9.1319 C.ar    1  UNL1        0.0572
     31 C          63.2655   84.4297    8.2217 C.ar    1  UNL1        0.1235
     32 N          64.0849   83.5050    9.0722 N.ar    1  UNL1       -0.1634
     33 N          63.7395   83.7676   10.5081 N.ar    1  UNL1       -0.2281
     34 C          64.2321   83.1573   11.7867 C.ar    1  UNL1        0.1004
     35 C          63.6917   83.6341   13.1022 C.ar    1  UNL1        0.0207
     36 C          62.6587   84.7211   13.1391 C.ar    1  UNL1        0.0031
     37 C          62.1661   85.3313   11.8605 C.ar    1  UNL1        0.0193
     38 C          62.7065   84.8546   10.5450 C.ar    1  UNL1        0.0858
@<TRIPOS>BOND
     1     1     2    1
     2     2     3   ar
     3     3     4   ar
     4     4     8    1
     5     8     9    1
     6     9    10    1
     7    10    11    1
     8    11    12   am
     9    12    13    2
    10    12    16    1
    11    16    17    1
    12    16    18    1
    13    11    14    1
    14    14    15    1
    15     4     5   ar
    16     5     6    1
    17     5     7   ar
    18     7    21    1
    19    21    23    1
    20    23    24   ar
    21    24    25   ar
    22    25    26   ar
    23    26    27    1
    24    26    28   ar
    25    28    30    1
    26    30    31   ar
    27    31    32   ar
    28    32    33   ar
    29    33    34   ar
    30    34    35   ar
    31    35    36   ar
    32    36    37   ar
    33    37    38   ar
    34    28    29   ar
    35     7     2   ar
    36    29    23   ar
    37    15     8    1
    38    38    30   ar
    39    38    33   ar
    40    18    19    1
    41    18    20    1
    42    21    22    1
@<TRIPOS>MOLECULE
*****
 38 42 0 0 0
SMALL
GASTEIGER

@<TRIPOS>ATOM
      1 C          59.7511   89.8650    8.1656 C.3     1  UNL1        0.0553
      2 C          60.8199   89.7046    9.2057 C.ar    1  UNL1        0.0935
      3 N          61.5845   90.8154    9.8629 N.ar    1  UNL1       -0.1727
      4 N          62.5490   90.2026   10.8347 N.ar    1  UNL1       -0.2558
      5 C          62.3805   88.7132   10.7782 C.ar    1  UNL1        0.0704
      6 C          63.1461   87.7080   11.5864 C.3     1  UNL1        0.0531
      7 C          61.3119   88.4054    9.7714 C.ar    1  UNL1        0.0792
      8 C          63.5127   90.9483   11.7094 C.3     1  UNL1        0.1083
      9 C          63.6583   90.5735   13.1545 C.3     1  UNL1        0.0459
     10 C          64.6220   91.3193   14.0293 C.3     1  UNL1        0.0954
     11 N          65.4401   92.4397   13.4589 N.am    1  UNL1       -0.2783
     12 C          66.4038   93.1855   14.3337 C.2     1  UNL1        0.2397
     13 O          67.2219   94.3059   13.7633 O.2     1  UNL1       -0.2734
     14 C          65.2944   92.8145   12.0138 C.3     1  UNL1        0.0954
     15 C          64.3307   92.0687   11.1391 C.3     1  UNL1        0.0459
     16 C          66.5494   92.8107   15.7788 C.3     1  UNL1        0.1286
     17 C          67.8883   92.3994   16.3156 C.3     1  UNL1        0.0267
     18 N          65.3562   92.8472   16.6870 N.3     1  UNL1       -0.3150
     19 H          65.6352   92.5645   17.6265 H       1  UNL1        0.1192
     20 H          64.6430   92.2074   16.3372 H       1  UNL1        0.1192
     21 N          60.8214   87.0384    9.3962 N.pl3   1  UNL1       -0.2806
     22 H          59.9276   86.9282    8.9984 H       1  UNL1        0.1551
     23 C          61.6925   85.8394    9.6271 C.ar    1  UNL1        0.2208
     24 N          62.4576   85.2373    8.4860 N.ar    1  UNL1       -0.2111
     25 C          63.3288   84.0382    8.7169 C.ar    1  UNL1        0.1147
     26 C          63.4348   83.4412   10.0889 C.ar    1  UNL1        0.0946
     27 CL         64.3060   82.2422   10.3198 Cl      1  UNL1       -0.0790
     28 C          62.6697   84.0434   11.2301 C.ar    1  UNL1        0.0992
     29 N          61.7986   85.2424   10.9991 N.ar    1  UNL1       -0.2126
     30 C          62.7757   83.4464   12.6021 C.ar    1  UNL1        0.0572
     31 C          62.4754   82.0236   12.9701 C.ar    1  UNL1        0.1235
     32 N          62.7148   81.8653   14.4424 N.ar    1  UNL1       -0.1634
     33 N          63.1630   83.1902   14.9843 N.ar    1  UNL1       -0.2281
     34 C          63.5418   83.6331   16.3664 C.ar    1  UNL1        0.1004
     35 C          63.9582   85.0532   16.6111 C.ar    1  UNL1        0.0207
     36 C          63.9958   86.0304   15.4737 C.ar    1  UNL1        0.0031
     37 C          63.6171   85.5875   14.0916 C.ar    1  UNL1        0.0193
     38 C          63.2007   84.1674   13.8469 C.ar    1  UNL1        0.0858
@<TRIPOS>BOND
     1     1     2    1
     2     2     3   ar
     3     3     4   ar
     4     4     8    1
     5     8     9    1
     6     9    10    1
     7    10    11    1
     8    11    12   am
     9    12    13    2
    10    12    16    1
    11    16    17    1
    12    16    18    1
    13    11    14    1
    14    14    15    1
    15     4     5   ar
    16     5     6    1
    17     5     7   ar
    18     7    21    1
    19    21    23    1
    20    23    24   ar
    21    24    25   ar
    22    25    26   ar
    23    26    27    1
    24    26    28   ar
    25    28    30    1
    26    30    31   ar
    27    31    32   ar
    28    32    33   ar
    29    33    34   ar
    30    34    35   ar
    31    35    36   ar
    32    36    37   ar
    33    37    38   ar
    34    28    29   ar
    35     7     2   ar
    36    29    23   ar
    37    15     8    1
    38    38    30   ar
    39    38    33   ar
    40    18    19    1
    41    18    20    1
    42    21    22    1
@<TRIPOS>MOLECULE
*****
 38 42 0 0 0
SMALL
GASTEIGER

@<TRIPOS>ATOM
      1 C          62.6513   87.2374   18.6405 C.3     1  UNL1        0.0553
      2 C          62.8943   86.7010   17.2609 C.ar    1  UNL1        0.0935
      3 N          62.6731   85.2866   16.8132 N.ar    1  UNL1       -0.1727
      4 N          63.0432   85.1963   15.3623 N.ar    1  UNL1       -0.2558
      5 C          63.4931   86.5549   14.9133 C.ar    1  UNL1        0.0704
      6 C          63.9541   86.9196   13.5334 C.3     1  UNL1        0.0531
      7 C          63.4011   87.4850   16.0867 C.ar    1  UNL1        0.0792
      8 C          62.9753   83.9638   14.5101 C.3     1  UNL1        0.1083
      9 C          63.3475   84.0341   13.0587 C.3     1  UNL1        0.0459
     10 C          63.2796   82.8015   12.2065 C.3     1  UNL1        0.0954
     11 N          62.8395   81.4987   12.8058 N.am    1  UNL1       -0.2783
     12 C          62.7716   80.2662   11.9535 C.2     1  UNL1        0.2397
     13 O          62.3316   78.9633   12.5527 O.2     1  UNL1       -0.2734
     14 C          62.4674   81.4284   14.2571 C.3     1  UNL1        0.0954
     15 C          62.5353   82.6610   15.1093 C.3     1  UNL1        0.0459
     16 C          63.1438   80.3365   10.5021 C.3     1  UNL1        0.1286
     17 C          62.8130   79.1950    9.5869 C.3     1  UNL1        0.0267
     18 N          63.8467   81.5483    9.9659 N.3     1  UNL1       -0.3150
     19 H          64.0213   81.4264    8.9683 H       1  UNL1        0.1192
     20 H          64.7339   81.6704   10.4539 H       1  UNL1        0.1192
     21 N          63.7539   88.9428   16.0860 N.pl3   1  UNL1       -0.2806
     22 H          63.9426   89.4040   16.9351 H       1  UNL1        0.1551
     23 C          63.8193   89.6982   14.7917 C.ar    1  UNL1        0.2208
     24 N          64.9541   90.6440   14.5319 N.ar    1  UNL1       -0.2111
     25 C          65.0195   91.3993   13.2376 C.ar    1  UNL1        0.1147
     26 C          63.9500   91.2088   12.2032 C.ar    1  UNL1        0.0946
     27 CL         64.0154   91.9641   10.9089 Cl      1  UNL1       -0.0790
     28 C          62.8151   90.2629   12.4631 C.ar    1  UNL1        0.0992
     29 N          62.7498   89.5077   13.7573 N.ar    1  UNL1       -0.2126
     30 C          61.7457   90.0724   11.4287 C.ar    1  UNL1        0.0572
     31 C          60.6426   91.0385   11.1127 C.ar    1  UNL1        0.1235
     32 N          59.8068   90.4455   10.0174 N.ar    1  UNL1       -0.1634
     33 N          60.3932   89.1129    9.6565 N.ar    1  UNL1       -0.2281
     34 C          59.9909   88.0797    8.6463 C.ar    1  UNL1        0.1004
     35 C          60.7868   86.8158    8.5084 C.ar    1  UNL1        0.0207
     36 C          61.9852   86.5852    9.3807 C.ar    1  UNL1        0.0031
     37 C          62.3875   87.6185   10.3909 C.ar    1  UNL1        0.0193
     38 C          61.5915   88.8823   10.5288 C.ar    1  UNL1        0.0858
@<TRIPOS>BOND
     1     1     2    1
     2     2     3   ar
     3     3     4   ar
     4     4     8    1
     5     8     9    1
     6     9    10    1
     7    10    11    1
     8    11    12   am
     9    12    13    2
    10    12    16    1
    11    16    17    1
    12    16    18    1
    13    11    14    1
    14    14    15    1
    15     4     5   ar
    16     5     6    1
    17     5     7   ar
    18     7    21    1
    19    21    23    1
    20    23    24   ar
    21    24    25   ar
    22    25    26   ar
    23    26    27    1
    24    26    28   ar
    25    28    30    1
    26    30    31   ar
    27    31    32   ar
    28    32    33   ar
    29    33    34   ar
    30    34    35   ar
    31    35    36   ar
    32    36    37   ar
    33    37    38   ar
    34    28    29   ar
    35     7     2   ar
    36    29    23   ar
    37    15     8    1
    38    38    30   ar
    39    38    33   ar
    40    18    19    1
    41    18    20    1
    42    21    22    1
