@<TRIPOS>MOLECULE
*****
 18 19 0 0 0
SMALL
GASTEIGER

@<TRIPOS>ATOM
      1 C          61.7083   86.8744   11.0189 C.2     1  UNL1        0.0063
      2 C          61.9626   85.4143   11.2505 C.2     1  UNL1        0.0422
      3 C          60.7064   88.7803    9.5651 C.ar    1  UNL1        0.1386
      4 C          59.9280   89.2244    8.3622 C.ar    1  UNL1        0.0369
      5 C          59.3731   88.2066    7.4103 C.ar    1  UNL1        0.0031
      6 C          59.5966   86.7448    7.6612 C.ar    1  UNL1        0.0002
      7 C          60.3750   86.3007    8.8640 C.ar    1  UNL1        0.0030
      8 C          60.9299   87.3185    9.8160 C.ar    1  UNL1        0.0341
      9 C          62.5684   90.4705   10.2180 C.3     1  UNL1        0.2525
     10 O          61.2613   89.7981   10.5170 O.3     1  UNL1       -0.4714
     11 C          62.7410   84.9702   12.4533 C.2     1  UNL1        0.1971
     12 O          63.4889   85.9769   13.2764 O.2     1  UNL1       -0.2865
     13 C          62.7715   83.5194   12.8331 C.ar    1  UNL1        0.0581
     14 C          62.8136   82.4656   11.7665 C.ar    1  UNL1        0.0063
     15 C          62.8441   81.0148   12.1464 C.ar    1  UNL1        0.0208
     16 C          62.8326   80.6178   13.5928 C.ar    1  UNL1        0.0989
     17 N          62.7906   81.6716   14.6595 N.ar    1  UNL1       -0.2422
     18 C          62.7601   83.1224   14.2797 C.ar    1  UNL1        0.1020
@<TRIPOS>BOND
     1     9    10    1
     2    10     3    1
     3     3     4   ar
     4     4     5   ar
     5     5     6   ar
     6     6     7   ar
     7     7     8   ar
     8     8     1    1
     9     1     2    2
    10     2    11    1
    11    11    12    2
    12    11    13    1
    13    13    14   ar
    14    14    15   ar
    15    15    16   ar
    16    16    17   ar
    17    17    18   ar
    18     8     3   ar
    19    18    13   ar
@<TRIPOS>MOLECULE
*****
 18 19 0 0 0
SMALL
GASTEIGER

@<TRIPOS>ATOM
      1 C          62.8239   85.0475   12.0881 C.2     1  UNL1        0.0063
      2 C          61.7158   85.6203   11.2550 C.2     1  UNL1        0.0422
      3 C          62.3852   83.3362   13.9932 C.ar    1  UNL1        0.1386
      4 C          62.3069   81.9167   14.4716 C.ar    1  UNL1        0.0369
      5 C          62.5889   80.7891   13.5236 C.ar    1  UNL1        0.0031
      6 C          62.9492   81.0808   12.0970 C.ar    1  UNL1        0.0002
      7 C          63.0275   82.5003   11.6186 C.ar    1  UNL1        0.0030
      8 C          62.7455   83.6280   12.5667 C.ar    1  UNL1        0.0341
      9 C          63.2064   85.0246   15.7889 C.3     1  UNL1        0.2525
     10 O          62.1033   84.4639   14.9412 O.3     1  UNL1       -0.4714
     11 C          61.7941   87.0397   10.7764 C.2     1  UNL1        0.1971
     12 O          62.7356   88.0030   11.4366 O.2     1  UNL1       -0.2865
     13 C          60.9309   87.4960    9.6377 C.ar    1  UNL1        0.0581
     14 C          60.1901   86.4897    8.8081 C.ar    1  UNL1        0.0063
     15 C          59.3268   86.9459    7.6694 C.ar    1  UNL1        0.0208
     16 C          59.2045   88.4086    7.3603 C.ar    1  UNL1        0.0989
     17 N          59.9454   89.4151    8.1899 N.ar    1  UNL1       -0.2422
     18 C          60.8086   88.9588    9.3286 C.ar    1  UNL1        0.1020
@<TRIPOS>BOND
     1     9    10    1
     2    10     3    1
     3     3     4   ar
     4     4     5   ar
     5     5     6   ar
     6     6     7   ar
     7     7     8   ar
     8     8     1    1
     9     1     2    2
    10     2    11    1
    11    11    12    2
    12    11    13    1
    13    13    14   ar
    14    14    15   ar
    15    15    16   ar
    16    16    17   ar
    17    17    18   ar
    18     8     3   ar
    19    18    13   ar
@<TRIPOS>MOLECULE
*****
 18 19 0 0 0
SMALL
GASTEIGER

@<TRIPOS>ATOM
      1 C          61.8884   85.4582   10.6883 C.2     1  UNL1        0.0063
      2 C          63.0355   84.7054   10.0821 C.2     1  UNL1        0.0422
      3 C          61.2644   87.9642   10.4035 C.ar    1  UNL1        0.1386
      4 C          60.5882   89.0542    9.6260 C.ar    1  UNL1        0.0369
      5 C          59.8598   88.7284    8.3558 C.ar    1  UNL1        0.0031
      6 C          59.8075   87.3126    7.8632 C.ar    1  UNL1        0.0002
      7 C          60.4837   86.2226    8.6407 C.ar    1  UNL1        0.0030
      8 C          61.2122   86.5484    9.9108 C.ar    1  UNL1        0.0341
      9 C          62.8140   89.5416   11.7674 C.3     1  UNL1        0.2525
     10 O          61.9928   88.2899   11.6736 O.3     1  UNL1       -0.4714
     11 C          63.7117   83.6154   10.8595 C.2     1  UNL1        0.1971
     12 O          64.6709   82.6887   10.1729 O.2     1  UNL1       -0.2865
     13 C          63.4288   83.4519   12.3235 C.ar    1  UNL1        0.0581
     14 C          62.4739   82.3930   12.7891 C.ar    1  UNL1        0.0063
     15 C          62.1910   82.2295   14.2531 C.ar    1  UNL1        0.0208
     16 C          62.8629   83.1249   15.2514 C.ar    1  UNL1        0.0989
     17 N          63.8179   84.1839   14.7858 N.ar    1  UNL1       -0.2422
     18 C          64.1008   84.3474   13.3218 C.ar    1  UNL1        0.1020
@<TRIPOS>BOND
     1     9    10    1
     2    10     3    1
     3     3     4   ar
     4     4     5   ar
     5     5     6   ar
     6     6     7   ar
     7     7     8   ar
     8     8     1    1
     9     1     2    2
    10     2    11    1
    11    11    12    2
    12    11    13    1
    13    13    14   ar
    14    14    15   ar
    15    15    16   ar
    16    16    17   ar
    17    17    18   ar
    18     8     3   ar
    19    18    13   ar
@<TRIPOS>MOLECULE
*****
 18 19 0 0 0
SMALL
GASTEIGER

@<TRIPOS>ATOM
      1 C          61.8338   87.3598   10.4255 C.2     1  UNL1        0.0063
      2 C          62.1011   88.8298   10.2935 C.2     1  UNL1        0.0422
      3 C          60.6616   86.5081    8.2689 C.ar    1  UNL1        0.1386
      4 C          60.6600   85.6337    7.0502 C.ar    1  UNL1        0.0369
      5 C          61.8288   84.7365    6.7692 C.ar    1  UNL1        0.0031
      6 C          62.9993   84.7137    7.7070 C.ar    1  UNL1        0.0002
      7 C          63.0009   85.5881    8.9257 C.ar    1  UNL1        0.0030
      8 C          61.8321   86.4853    9.2067 C.ar    1  UNL1        0.0341
      9 C          59.1529   88.5142    7.5987 C.3     1  UNL1        0.2525
     10 O          59.4928   87.4053    8.5499 O.3     1  UNL1       -0.4714
     11 C          62.1028   89.7042   11.5122 C.2     1  UNL1        0.1971
     12 O          60.9951   89.5920   12.5174 O.2     1  UNL1       -0.2865
     13 C          63.2122   90.6910   11.7257 C.ar    1  UNL1        0.0581
     14 C          63.7970   91.4267   10.5566 C.ar    1  UNL1        0.0063
     15 C          64.9064   92.4134   10.7702 C.ar    1  UNL1        0.0208
     16 C          65.4309   92.6645   12.1528 C.ar    1  UNL1        0.0989
     17 N          64.8461   91.9289   13.3220 N.ar    1  UNL1       -0.2422
     18 C          63.7368   90.9421   13.1085 C.ar    1  UNL1        0.1020
@<TRIPOS>BOND
     1     9    10    1
     2    10     3    1
     3     3     4   ar
     4     4     5   ar
     5     5     6   ar
     6     6     7   ar
     7     7     8   ar
     8     8     1    1
     9     1     2    2
    10     2    11    1
    11    11    12    2
    12    11    13    1
    13    13    14   ar
    14    14    15   ar
    15    15    16   ar
    16    16    17   ar
    17    17    18   ar
    18     8     3   ar
    19    18    13   ar
@<TRIPOS>MOLECULE
*****
 18 19 0 0 0
SMALL
GASTEIGER

@<TRIPOS>ATOM
      1 C          62.8359   84.8372   11.3941 C.2     1  UNL1        0.0063
      2 C          61.7089   85.8121   11.2221 C.2     1  UNL1        0.0422
      3 C          62.7100   83.9088   13.8174 C.ar    1  UNL1        0.1386
      4 C          62.5624   82.7502   14.7585 C.ar    1  UNL1        0.0369
      5 C          62.3928   81.3614   14.2177 C.ar    1  UNL1        0.0031
      6 C          62.3710   81.1312   12.7357 C.ar    1  UNL1        0.0002
      7 C          62.5186   82.2898   11.7945 C.ar    1  UNL1        0.0030
      8 C          62.6882   83.6786   12.3353 C.ar    1  UNL1        0.0341
      9 C          64.2384   85.7815   14.7696 C.3     1  UNL1        0.2525
     10 O          62.8796   85.2976   14.3582 O.3     1  UNL1       -0.4714
     11 C          61.8566   86.9706   10.2809 C.2     1  UNL1        0.1971
     12 O          61.4731   86.8189    8.8386 O.2     1  UNL1       -0.2865
     13 C          62.3876   88.2810   10.7818 C.ar    1  UNL1        0.0581
     14 C          62.3018   89.5045    9.9183 C.ar    1  UNL1        0.0063
     15 C          62.8328   90.8148   10.4193 C.ar    1  UNL1        0.0208
     16 C          63.4497   90.9017   11.7838 C.ar    1  UNL1        0.0989
     17 N          63.5356   89.6782   12.6474 N.ar    1  UNL1       -0.2422
     18 C          63.0045   88.3678   12.1464 C.ar    1  UNL1        0.1020
@<TRIPOS>BOND
     1     9    10    1
     2    10     3    1
     3     3     4   ar
     4     4     5   ar
     5     5     6   ar
     6     6     7   ar
     7     7     8   ar
     8     8     1    1
     9     1     2    2
    10     2    11    1
    11    11    12    2
    12    11    13    1
    13    13    14   ar
    14    14    15   ar
    15    15    16   ar
    16    16    17   ar
    17    17    18   ar
    18     8     3   ar
    19    18    13   ar
@<TRIPOS>MOLECULE
*****
 18 19 0 0 0
SMALL
GASTEIGER

@<TRIPOS>ATOM
      1 C          63.1385   84.2702   14.2612 C.2     1  UNL1        0.0063
      2 C          63.9600   85.5137   14.4304 C.2     1  UNL1        0.0422
      3 C          62.8327   82.0048   13.0264 C.ar    1  UNL1        0.1386
      4 C          62.9848   81.1679   11.7910 C.ar    1  UNL1        0.0369
      5 C          63.5949   81.7593   10.5548 C.ar    1  UNL1        0.0031
      6 C          64.0528   83.1877   10.5541 C.ar    1  UNL1        0.0002
      7 C          63.9007   84.0246   11.7896 C.ar    1  UNL1        0.0030
      8 C          63.2906   83.4332   13.0257 C.ar    1  UNL1        0.0341
      9 C          60.8433   80.8264   14.2111 C.3     1  UNL1        0.2525
     10 O          62.2226   81.4134   14.2625 O.3     1  UNL1       -0.4714
     11 C          63.8079   86.3507   15.6658 C.2     1  UNL1        0.1971
     12 O          63.6423   85.6913   17.0029 O.2     1  UNL1       -0.2865
     13 C          63.8215   87.8472   15.5642 C.ar    1  UNL1        0.0581
     14 C          64.4418   88.5124   14.3715 C.ar    1  UNL1        0.0063
     15 C          64.4553   90.0089   14.2699 C.ar    1  UNL1        0.0208
     16 C          63.8486   90.8402   15.3611 C.ar    1  UNL1        0.0989
     17 N          63.2282   90.1751   16.5539 N.ar    1  UNL1       -0.2422
     18 C          63.2147   88.6786   16.6555 C.ar    1  UNL1        0.1020
@<TRIPOS>BOND
     1     9    10    1
     2    10     3    1
     3     3     4   ar
     4     4     5   ar
     5     5     6   ar
     6     6     7   ar
     7     7     8   ar
     8     8     1    1
     9     1     2    2
    10     2    11    1
    11    11    12    2
    12    11    13    1
    13    13    14   ar
    14    14    15   ar
    15    15    16   ar
    16    16    17   ar
    17    17    18   ar
    18     8     3   ar
    19    18    13   ar
@<TRIPOS>MOLECULE
*****
 18 19 0 0 0
SMALL
GASTEIGER

@<TRIPOS>ATOM
      1 C          62.3573   89.7476   12.2791 C.2     1  UNL1        0.0063
      2 C          62.4612   88.6352   11.2782 C.2     1  UNL1        0.0422
      3 C          64.2132   90.1381   14.0549 C.ar    1  UNL1        0.1386
      4 C          65.4489   90.8594   14.5054 C.ar    1  UNL1        0.0369
      5 C          66.0643   91.9112   13.6309 C.ar    1  UNL1        0.0031
      6 C          65.4440   92.2419   12.3058 C.ar    1  UNL1        0.0002
      7 C          64.2084   91.5207   11.8552 C.ar    1  UNL1        0.0030
      8 C          63.5930   90.4688   12.7298 C.ar    1  UNL1        0.0341
      9 C          63.2003   89.4195   16.3368 C.3     1  UNL1        0.2525
     10 O          63.5978   89.0863   14.9294 O.3     1  UNL1       -0.4714
     11 C          61.2256   87.9140   10.8276 C.2     1  UNL1        0.1971
     12 O          59.9384   88.0909   11.5773 O.2     1  UNL1       -0.2865
     13 C          61.2771   87.0159    9.6273 C.ar    1  UNL1        0.0581
     14 C          62.5475   86.2967    9.2827 C.ar    1  UNL1        0.0063
     15 C          62.5989   85.3986    8.0824 C.ar    1  UNL1        0.0208
     16 C          61.3800   85.2196    7.2267 C.ar    1  UNL1        0.0989
     17 N          60.1096   85.9388    7.5713 N.ar    1  UNL1       -0.2422
     18 C          60.0581   86.8369    8.7716 C.ar    1  UNL1        0.1020
@<TRIPOS>BOND
     1     9    10    1
     2    10     3    1
     3     3     4   ar
     4     4     5   ar
     5     5     6   ar
     6     6     7   ar
     7     7     8   ar
     8     8     1    1
     9     1     2    2
    10     2    11    1
    11    11    12    2
    12    11    13    1
    13    13    14   ar
    14    14    15   ar
    15    15    16   ar
    16    16    17   ar
    17    17    18   ar
    18     8     3   ar
    19    18    13   ar
@<TRIPOS>MOLECULE
*****
 18 19 0 0 0
SMALL
GASTEIGER

@<TRIPOS>ATOM
      1 C          62.0079   85.7488   11.5006 C.2     1  UNL1        0.0063
      2 C          62.7380   84.4438   11.3818 C.2     1  UNL1        0.0422
      3 C          60.4888   87.5784   10.4542 C.ar    1  UNL1        0.1386
      4 C          59.7585   88.1396    9.2703 C.ar    1  UNL1        0.0369
      5 C          59.8169   87.4323    7.9488 C.ar    1  UNL1        0.0031
      6 C          60.6056   86.1639    7.8112 C.ar    1  UNL1        0.0002
      7 C          61.3359   85.6027    8.9951 C.ar    1  UNL1        0.0030
      8 C          61.2775   86.3100   10.3166 C.ar    1  UNL1        0.0341
      9 C          60.8398   89.7254   11.8746 C.3     1  UNL1        0.2525
     10 O          60.4305   88.2857   11.7757 O.3     1  UNL1       -0.4714
     11 C          63.4683   83.8826   12.5657 C.2     1  UNL1        0.1971
     12 O          64.2709   82.6232   12.4239 O.2     1  UNL1       -0.2865
     13 C          63.3962   84.5807   13.8914 C.ar    1  UNL1        0.0581
     14 C          64.3354   85.7097   14.1966 C.ar    1  UNL1        0.0063
     15 C          64.2633   86.4078   15.5223 C.ar    1  UNL1        0.0208
     16 C          63.2520   85.9768   16.5428 C.ar    1  UNL1        0.0989
     17 N          62.3128   84.8477   16.2377 N.ar    1  UNL1       -0.2422
     18 C          62.3849   84.1496   14.9120 C.ar    1  UNL1        0.1020
@<TRIPOS>BOND
     1     9    10    1
     2    10     3    1
     3     3     4   ar
     4     4     5   ar
     5     5     6   ar
     6     6     7   ar
     7     7     8   ar
     8     8     1    1
     9     1     2    2
    10     2    11    1
    11    11    12    2
    12    11    13    1
    13    13    14   ar
    14    14    15   ar
    15    15    16   ar
    16    16    17   ar
    17    17    18   ar
    18     8     3   ar
    19    18    13   ar
@<TRIPOS>MOLECULE
*****
 18 19 0 0 0
SMALL
GASTEIGER

@<TRIPOS>ATOM
      1 C          61.3008   89.4163   11.7477 C.2     1  UNL1        0.0063
      2 C          62.7491   89.3542   12.1331 C.2     1  UNL1        0.0422
      3 C          60.8190   87.2351   10.4209 C.ar    1  UNL1        0.1386
      4 C          60.3452   86.5519    9.1724 C.ar    1  UNL1        0.0369
      5 C          59.8793   87.3666    8.0023 C.ar    1  UNL1        0.0031
      6 C          59.8872   88.8645    8.0806 C.ar    1  UNL1        0.0002
      7 C          60.3610   89.5477    9.3290 C.ar    1  UNL1        0.0030
      8 C          60.8269   88.7330   10.4992 C.ar    1  UNL1        0.0341
      9 C          62.2749   85.3123   11.3868 C.3     1  UNL1        0.2525
     10 O          61.2849   86.4205   11.5910 O.3     1  UNL1       -0.4714
     11 C          63.2229   90.0375   13.3815 C.2     1  UNL1        0.1971
     12 O          62.4725   89.8548   14.6675 O.2     1  UNL1       -0.2865
     13 C          64.4472   90.9034   13.3440 C.ar    1  UNL1        0.0581
     14 C          65.4817   90.7866   14.4238 C.ar    1  UNL1        0.0063
     15 C          66.7060   91.6525   14.3864 C.ar    1  UNL1        0.0208
     16 C          66.8957   92.6352   13.2691 C.ar    1  UNL1        0.0989
     17 N          65.8611   92.7520   12.1892 N.ar    1  UNL1       -0.2422
     18 C          64.6369   91.8861   12.2267 C.ar    1  UNL1        0.1020
@<TRIPOS>BOND
     1     9    10    1
     2    10     3    1
     3     3     4   ar
     4     4     5   ar
     5     5     6   ar
     6     6     7   ar
     7     7     8   ar
     8     8     1    1
     9     1     2    2
    10     2    11    1
    11    11    12    2
    12    11    13    1
    13    13    14   ar
    14    14    15   ar
    15    15    16   ar
    16    16    17   ar
    17    17    18   ar
    18     8     3   ar
    19    18    13   ar
