@<TRIPOS>MOLECULE
*****
 42 47 0 0 0
SMALL
GASTEIGER

@<TRIPOS>ATOM
      1 C          63.2814   90.2489   12.9138 C.ar    1  UNL1        0.0830
      2 C          63.0094   91.2910   11.8698 C.ar    1  UNL1        0.0208
      3 C          62.5833   90.8788   10.4919 C.ar    1  UNL1        0.0238
      4 C          62.4292   89.4246   10.1581 C.ar    1  UNL1        0.1173
      5 N          62.0264   88.7218    8.8955 N.ar    1  UNL1       -0.2248
      6 C          62.0496   87.2454    9.1593 C.ar    1  UNL1        0.1515
      7 N          62.4665   87.0357   10.5849 N.ar    1  UNL1       -0.2754
      8 C          62.7011   88.3825   11.2022 C.ar    1  UNL1        0.1665
      9 N          63.1273   88.7946   12.5800 N.ar    1  UNL1       -0.2264
     10 C          61.7145   86.1677    8.1711 C.ar    1  UNL1        0.0657
     11 C          62.8056   85.3203    7.5869 C.ar    1  UNL1        0.0074
     12 C          62.4705   84.2428    6.5987 C.ar    1  UNL1        0.0209
     13 C          61.0444   84.0127    6.1947 C.ar    1  UNL1        0.1003
     14 N          59.9533   84.8601    6.7789 N.ar    1  UNL1       -0.2295
     15 C          60.2884   85.9376    7.7671 C.ar    1  UNL1        0.1282
     16 N          59.1973   86.7852    8.3514 N.pl3   1  UNL1       -0.3425
     17 H          58.2613   86.6342    8.0863 H       1  UNL1        0.1437
     18 H          59.4172   87.4924    9.0000 H       1  UNL1        0.1437
     19 C          65.1994   92.1141   15.8451 C.ar    1  UNL1        0.0503
     20 C          64.5599   91.4853   17.0475 C.ar    1  UNL1        0.0147
     21 C          63.4943   90.4443   16.8720 C.ar    1  UNL1        0.0013
     22 C          63.0681   90.0322   15.4941 C.ar    1  UNL1        0.0016
     23 C          63.7076   90.6610   14.2917 C.ar    1  UNL1        0.0189
     24 C          64.7732   91.7020   14.4673 C.ar    1  UNL1        0.0162
     25 C          68.7679   93.8480   15.9444 C.3     1  UNL1        0.0949
     26 C          67.7022   92.8070   15.7689 C.2     1  UNL1        0.2266
     27 O          68.0738   91.4180   15.3417 O.2     1  UNL1       -0.2748
     28 N          66.2650   93.1551   16.0206 N.am    1  UNL1       -0.2839
     29 H          66.0212   94.0668   16.3010 H       1  UNL1        0.1549
     30 C          62.6217   85.7116   11.2725 C.ar    1  UNL1        0.0667
     31 C          62.3127   85.5852   12.7349 C.ar    1  UNL1        0.0173
     32 C          62.4679   84.2611   13.4225 C.ar    1  UNL1       -0.0015
     33 C          62.9320   83.0635   12.6477 C.ar    1  UNL1       -0.0097
     34 C          63.2409   83.1899   11.1854 C.ar    1  UNL1       -0.0015
     35 C          63.0858   84.5140   10.4978 C.ar    1  UNL1        0.0173
     36 C          63.0871   81.7394   13.3353 C.3     1  UNL1        0.0581
     37 N          63.7154   82.4244   14.5126 N.3     1  UNL1       -0.3200
     38 C          62.4589   81.0544   12.1580 C.3     1  UNL1        0.0185
     39 C          62.6141   79.7304   12.8456 C.3     1  UNL1        0.0033
     40 C          63.2423   80.4154   14.0229 C.3     1  UNL1        0.0185
     41 H          63.7583   83.4285   14.3387 H       1  UNL1        0.1191
     42 H          64.6589   82.0630   14.6527 H       1  UNL1        0.1191
@<TRIPOS>BOND
     1    25    26    1
     2    26    27    2
     3    26    28   am
     4    28    19    1
     5    19    20   ar
     6    20    21   ar
     7    21    22   ar
     8    22    23   ar
     9    23     1    1
    10     1     2   ar
    11     2     3   ar
    12     3     4   ar
    13     4     5   ar
    14     5     6   ar
    15     6    10    1
    16    10    11   ar
    17    11    12   ar
    18    12    13   ar
    19    13    14   ar
    20    14    15   ar
    21    15    16    1
    22     6     7   ar
    23     7    30    1
    24    30    31   ar
    25    31    32   ar
    26    32    33   ar
    27    33    36    1
    28    36    37    1
    29    36    38    1
    30    38    39    1
    31    39    40    1
    32    33    34   ar
    33    34    35   ar
    34     7     8   ar
    35     8     9   ar
    36    23    24   ar
    37    24    19   ar
    38     9     1   ar
    39     8     4   ar
    40    15    10   ar
    41    35    30   ar
    42    40    36    1
    43    28    29    1
    44    16    17    1
    45    16    18    1
    46    37    41    1
    47    37    42    1
@<TRIPOS>MOLECULE
*****
 42 47 0 0 0
SMALL
GASTEIGER

@<TRIPOS>ATOM
      1 C          62.3252   89.0973   11.3162 C.ar    1  UNL1        0.0830
      2 C          62.2224   88.2239   12.5313 C.ar    1  UNL1        0.0208
      3 C          63.1174   88.4699   13.7096 C.ar    1  UNL1        0.0238
      4 C          64.1152   89.5893   13.6727 C.ar    1  UNL1        0.1173
      5 N          65.1228   90.0692   14.6751 N.ar    1  UNL1       -0.2248
      6 C          65.8483   91.2391   14.0794 C.ar    1  UNL1        0.1515
      7 N          65.2890   91.4823   12.7089 N.ar    1  UNL1       -0.2754
      8 C          64.2180   90.4627   12.4576 C.ar    1  UNL1        0.1665
      9 N          63.3229   90.2167   11.2794 N.ar    1  UNL1       -0.2264
     10 C          66.9411   92.0275   14.7384 C.ar    1  UNL1        0.0657
     11 C          68.3184   92.0417   14.1445 C.ar    1  UNL1        0.0074
     12 C          69.4112   92.8300   14.8035 C.ar    1  UNL1        0.0209
     13 C          69.1266   93.6042   16.0564 C.ar    1  UNL1        0.1003
     14 N          67.7493   93.5900   16.6503 N.ar    1  UNL1       -0.2295
     15 C          66.6566   92.8017   15.9913 C.ar    1  UNL1        0.1282
     16 N          65.2791   92.7874   16.5851 N.pl3   1  UNL1       -0.3425
     17 H          65.0923   93.2955   17.4074 H       1  UNL1        0.1437
     18 H          64.5619   92.2700   16.1526 H       1  UNL1        0.1437
     19 C          60.6327   87.3155    8.2000 C.ar    1  UNL1        0.0503
     20 C          59.6401   88.3593    7.7812 C.ar    1  UNL1        0.0147
     21 C          59.5426   89.6491    8.5407 C.ar    1  UNL1        0.0013
     22 C          60.4376   89.8951    9.7191 C.ar    1  UNL1        0.0016
     23 C          61.4301   88.8513   10.1379 C.ar    1  UNL1        0.0189
     24 C          61.5276   87.5615    9.3783 C.ar    1  UNL1        0.0162
     25 C          62.1231   83.9801    6.6496 C.3     1  UNL1        0.0949
     26 C          62.0255   85.2699    7.4091 C.2     1  UNL1        0.2266
     27 O          63.2233   85.8039    8.1372 O.2     1  UNL1       -0.2748
     28 N          60.7302   86.0257    7.4405 N.am    1  UNL1       -0.2839
     29 H          59.9441   85.6751    6.9626 H       1  UNL1        0.1549
     30 C          65.7244   92.5566   11.7569 C.ar    1  UNL1        0.0667
     31 C          65.6411   93.9980   12.1635 C.ar    1  UNL1        0.0173
     32 C          66.0765   95.0723   11.2115 C.ar    1  UNL1       -0.0015
     33 C          66.5952   94.7052    9.8528 C.ar    1  UNL1       -0.0097
     34 C          66.6786   93.2638    9.4461 C.ar    1  UNL1       -0.0015
     35 C          66.2432   92.1895   10.3982 C.ar    1  UNL1        0.0173
     36 C          67.0306   95.7794    8.9007 C.3     1  UNL1        0.0581
     37 N          68.3956   95.7773    9.5226 N.3     1  UNL1       -0.3200
     38 C          65.6656   95.7816    8.2789 C.3     1  UNL1        0.0185
     39 C          66.1010   96.8558    7.3268 C.3     1  UNL1        0.0033
     40 C          67.4660   96.8537    7.9487 C.3     1  UNL1        0.0185
     41 H          68.4259   95.0881   10.2739 H       1  UNL1        0.1191
     42 H          68.5981   96.7025    9.9015 H       1  UNL1        0.1191
@<TRIPOS>BOND
     1    25    26    1
     2    26    27    2
     3    26    28   am
     4    28    19    1
     5    19    20   ar
     6    20    21   ar
     7    21    22   ar
     8    22    23   ar
     9    23     1    1
    10     1     2   ar
    11     2     3   ar
    12     3     4   ar
    13     4     5   ar
    14     5     6   ar
    15     6    10    1
    16    10    11   ar
    17    11    12   ar
    18    12    13   ar
    19    13    14   ar
    20    14    15   ar
    21    15    16    1
    22     6     7   ar
    23     7    30    1
    24    30    31   ar
    25    31    32   ar
    26    32    33   ar
    27    33    36    1
    28    36    37    1
    29    36    38    1
    30    38    39    1
    31    39    40    1
    32    33    34   ar
    33    34    35   ar
    34     7     8   ar
    35     8     9   ar
    36    23    24   ar
    37    24    19   ar
    38     9     1   ar
    39     8     4   ar
    40    15    10   ar
    41    35    30   ar
    42    40    36    1
    43    28    29    1
    44    16    17    1
    45    16    18    1
    46    37    41    1
    47    37    42    1
@<TRIPOS>MOLECULE
*****
 42 47 0 0 0
SMALL
GASTEIGER

@<TRIPOS>ATOM
      1 C          62.1280   88.1537   11.0109 C.ar    1  UNL1        0.0830
      2 C          62.1098   87.1554   12.1303 C.ar    1  UNL1        0.0208
      3 C          62.9187   87.4029   13.3690 C.ar    1  UNL1        0.0238
      4 C          63.7457   88.6486   13.4884 C.ar    1  UNL1        0.1173
      5 N          64.6384   89.1600   14.5801 N.ar    1  UNL1       -0.2248
      6 C          65.2082   90.4743   14.1353 C.ar    1  UNL1        0.1515
      7 N          64.6677   90.7752   12.7688 N.ar    1  UNL1       -0.2754
      8 C          63.7639   89.6468   12.3690 C.ar    1  UNL1        0.1665
      9 N          62.9550   89.3994   11.1302 N.ar    1  UNL1       -0.2264
     10 C          66.1527   91.3364   14.9194 C.ar    1  UNL1        0.0657
     11 C          67.5979   91.4162   14.5257 C.ar    1  UNL1        0.0074
     12 C          68.5423   92.2782   15.3098 C.ar    1  UNL1        0.0209
     13 C          68.0415   93.0606   16.4876 C.ar    1  UNL1        0.1003
     14 N          66.5964   92.9808   16.8813 N.ar    1  UNL1       -0.2295
     15 C          65.6520   92.1187   16.0972 C.ar    1  UNL1        0.1282
     16 N          64.2067   92.0389   16.4909 N.pl3   1  UNL1       -0.3425
     17 H          63.8780   92.5524   17.2640 H       1  UNL1        0.1437
     18 H          63.5868   91.4731   15.9763 H       1  UNL1        0.1437
     19 C          59.7157   88.7743    7.9213 C.ar    1  UNL1        0.0503
     20 C          59.7014   87.4115    7.2945 C.ar    1  UNL1        0.0147
     21 C          60.4960   86.2961    7.9066 C.ar    1  UNL1        0.0013
     22 C          61.3048   86.5436    9.1454 C.ar    1  UNL1        0.0016
     23 C          61.3191   87.9063    9.7721 C.ar    1  UNL1        0.0189
     24 C          60.5246   89.0216    9.1600 C.ar    1  UNL1        0.0162
     25 C          58.5034   91.5417    5.3480 C.3     1  UNL1        0.0949
     26 C          59.2980   90.4264    5.9601 C.2     1  UNL1        0.2266
     27 O          60.4693   89.8478    5.2232 O.2     1  UNL1       -0.2748
     28 N          58.9212   89.8896    7.3092 N.am    1  UNL1       -0.2839
     29 H          58.1523   90.2694    7.7929 H       1  UNL1        0.1549
     30 C          64.9769   91.9910   11.9464 C.ar    1  UNL1        0.0667
     31 C          65.8269   93.0868   12.5180 C.ar    1  UNL1        0.0173
     32 C          66.1361   94.3025   11.6956 C.ar    1  UNL1       -0.0015
     33 C          65.5952   94.4226   10.3017 C.ar    1  UNL1       -0.0097
     34 C          64.7451   93.3269    9.7302 C.ar    1  UNL1       -0.0015
     35 C          64.4360   92.1111   10.5525 C.ar    1  UNL1        0.0173
     36 C          65.9043   95.6384    9.4794 C.3     1  UNL1        0.0581
     37 N          64.5514   96.2004    9.8017 N.3     1  UNL1       -0.3200
     38 C          67.2572   95.0764    9.1571 C.3     1  UNL1        0.0185
     39 C          67.5663   96.2922    8.3347 C.3     1  UNL1        0.0033
     40 C          66.2134   96.8542    8.6570 C.3     1  UNL1        0.0185
     41 H          64.0466   95.5483   10.4020 H       1  UNL1        0.1191
     42 H          64.0278   96.3426    8.9380 H       1  UNL1        0.1191
@<TRIPOS>BOND
     1    25    26    1
     2    26    27    2
     3    26    28   am
     4    28    19    1
     5    19    20   ar
     6    20    21   ar
     7    21    22   ar
     8    22    23   ar
     9    23     1    1
    10     1     2   ar
    11     2     3   ar
    12     3     4   ar
    13     4     5   ar
    14     5     6   ar
    15     6    10    1
    16    10    11   ar
    17    11    12   ar
    18    12    13   ar
    19    13    14   ar
    20    14    15   ar
    21    15    16    1
    22     6     7   ar
    23     7    30    1
    24    30    31   ar
    25    31    32   ar
    26    32    33   ar
    27    33    36    1
    28    36    37    1
    29    36    38    1
    30    38    39    1
    31    39    40    1
    32    33    34   ar
    33    34    35   ar
    34     7     8   ar
    35     8     9   ar
    36    23    24   ar
    37    24    19   ar
    38     9     1   ar
    39     8     4   ar
    40    15    10   ar
    41    35    30   ar
    42    40    36    1
    43    28    29    1
    44    16    17    1
    45    16    18    1
    46    37    41    1
    47    37    42    1
@<TRIPOS>MOLECULE
*****
 42 47 0 0 0
SMALL
GASTEIGER

@<TRIPOS>ATOM
      1 C          43.9033   81.5568   13.6960 C.ar    1  UNL1        0.0830
      2 C          43.7646   82.8922   14.3648 C.ar    1  UNL1        0.0208
      3 C          43.8218   82.9914   15.8604 C.ar    1  UNL1        0.0238
      4 C          44.0176   81.7552   16.6871 C.ar    1  UNL1        0.1173
      5 N          44.1136   81.5437   18.1691 N.ar    1  UNL1       -0.2248
      6 C          44.3117   80.0775   18.4161 C.ar    1  UNL1        0.1515
      7 N          44.3380   79.3829   17.0868 N.ar    1  UNL1       -0.2754
      8 C          44.1563   80.4198   16.0183 C.ar    1  UNL1        0.1665
      9 N          44.0992   80.3206   14.5227 N.ar    1  UNL1       -0.2264
     10 C          44.4577   79.4210   19.7569 C.ar    1  UNL1        0.0657
     11 C          43.7212   78.1483   20.0531 C.ar    1  UNL1        0.0074
     12 C          43.8673   77.4919   21.3938 C.ar    1  UNL1        0.0209
     13 C          44.7498   78.1082   22.4385 C.ar    1  UNL1        0.1003
     14 N          45.4863   79.3810   22.1424 N.ar    1  UNL1       -0.2295
     15 C          45.3402   80.0373   20.8016 C.ar    1  UNL1        0.1282
     16 N          46.0767   81.3101   20.5054 N.pl3   1  UNL1       -0.3425
     17 H          46.6559   81.7147   21.1910 H       1  UNL1        0.1437
     18 H          45.9808   81.7410   19.6253 H       1  UNL1        0.1437
     19 C          43.8879   80.0183   10.0377 C.ar    1  UNL1        0.0503
     20 C          43.7320   81.2590    9.2090 C.ar    1  UNL1        0.0147
     21 C          43.6332   82.5989    9.8760 C.ar    1  UNL1        0.0013
     22 C          43.6903   82.6981   11.3717 C.ar    1  UNL1        0.0016
     23 C          43.8462   81.4575   12.2003 C.ar    1  UNL1        0.0189
     24 C          43.9450   80.1176   11.5333 C.ar    1  UNL1        0.0162
     25 C          45.3716   76.9151    8.0580 C.3     1  UNL1        0.0949
     26 C          45.2728   78.2551    8.7250 C.2     1  UNL1        0.2266
     27 O          46.4600   79.1716    8.7464 O.2     1  UNL1       -0.2748
     28 N          43.9867   78.6784    9.3707 N.am    1  UNL1       -0.2839
     29 H          43.2075   78.0769    9.3566 H       1  UNL1        0.1549
     30 C          44.5151   77.9100   16.8650 C.ar    1  UNL1        0.0667
     31 C          45.5737   77.1601   17.6179 C.ar    1  UNL1        0.0173
     32 C          45.7508   75.6872   17.3960 C.ar    1  UNL1       -0.0015
     33 C          44.8692   74.9642   16.4214 C.ar    1  UNL1       -0.0097
     34 C          43.8106   75.7141   15.6685 C.ar    1  UNL1       -0.0015
     35 C          43.6335   77.1870   15.8903 C.ar    1  UNL1        0.0173
     36 C          45.0463   73.4913   16.1995 C.3     1  UNL1        0.0581
     37 N          44.8448   73.6889   14.7263 N.3     1  UNL1       -0.3200
     38 C          45.2478   73.2936   17.6727 C.3     1  UNL1        0.0185
     39 C          45.4248   71.8207   17.4509 C.3     1  UNL1        0.0033
     40 C          45.2233   72.0184   15.9777 C.3     1  UNL1        0.0185
     41 H          44.6856   74.6780   14.5346 H       1  UNL1        0.1191
     42 H          44.0364   73.1485   14.4182 H       1  UNL1        0.1191
@<TRIPOS>BOND
     1    25    26    1
     2    26    27    2
     3    26    28   am
     4    28    19    1
     5    19    20   ar
     6    20    21   ar
     7    21    22   ar
     8    22    23   ar
     9    23     1    1
    10     1     2   ar
    11     2     3   ar
    12     3     4   ar
    13     4     5   ar
    14     5     6   ar
    15     6    10    1
    16    10    11   ar
    17    11    12   ar
    18    12    13   ar
    19    13    14   ar
    20    14    15   ar
    21    15    16    1
    22     6     7   ar
    23     7    30    1
    24    30    31   ar
    25    31    32   ar
    26    32    33   ar
    27    33    36    1
    28    36    37    1
    29    36    38    1
    30    38    39    1
    31    39    40    1
    32    33    34   ar
    33    34    35   ar
    34     7     8   ar
    35     8     9   ar
    36    23    24   ar
    37    24    19   ar
    38     9     1   ar
    39     8     4   ar
    40    15    10   ar
    41    35    30   ar
    42    40    36    1
    43    28    29    1
    44    16    17    1
    45    16    18    1
    46    37    41    1
    47    37    42    1
