@<TRIPOS>MOLECULE
*****
 40 43 0 0 0
SMALL
GASTEIGER

@<TRIPOS>ATOM
      1 C          61.8460   89.9450   11.6650 C.3     1  UNL1        0.1011
      2 C          60.4632   90.5214   11.5904 C.3     1  UNL1        0.0265
      3 N          63.0360   90.8560   11.7256 N.am    1  UNL1       -0.2438
      4 C          63.5584   91.4918   10.4715 C.3     1  UNL1        0.1009
      5 C          64.7485   92.4030   10.5321 C.3     1  UNL1        0.0662
      6 C          65.4161   92.6782   11.8468 C.3     1  UNL1        0.1600
      7 O          64.8937   92.0424   13.1009 O.3     1  UNL1       -0.4374
      8 C          63.7037   91.1314   13.0404 C.2     1  UNL1        0.4051
      9 O          63.1812   90.4955   14.2945 O.2     1  UNL1       -0.2262
     10 C          66.2738   93.5099   10.9399 C.ar    1  UNL1        0.0138
     11 C          67.1761   92.8451    9.9430 C.ar    1  UNL1       -0.0010
     12 C          68.0338   93.6768    9.0361 C.ar    1  UNL1       -0.0002
     13 C          67.9893   95.1735    9.1261 C.ar    1  UNL1       -0.0000
     14 C          67.0871   95.8384   10.1230 C.ar    1  UNL1       -0.0002
     15 C          66.2293   95.0067   11.0299 C.ar    1  UNL1       -0.0010
     16 C          66.3816   93.2424   12.8466 C.3     1  UNL1        0.0714
     17 C          67.0320   92.3400   13.8530 C.3     1  UNL1        0.0922
     18 C          67.8144   91.6806   12.7561 C.3     1  UNL1        0.0294
     19 C          66.2495   92.9993   14.9498 C.3     1  UNL1        0.0294
     20 O          67.6823   91.4375   14.8593 O.3     1  UNL1       -0.3866
     21 H          68.2995   90.8410   14.4075 H       1  UNL1        0.2102
     22 C          62.4242   85.4825   11.7072 C.ar    1  UNL1        0.0002
     23 C          63.3231   86.3630   12.5237 C.ar    1  UNL1       -0.0003
     24 C          63.1303   87.8504   12.5097 C.ar    1  UNL1       -0.0027
     25 C          62.0387   88.4575   11.6791 C.ar    1  UNL1       -0.0042
     26 C          61.1399   87.5770   10.8626 C.ar    1  UNL1       -0.0027
     27 C          61.3326   86.0895   10.8766 C.ar    1  UNL1       -0.0003
     28 N          63.0025   81.0200   11.7493 N.ar    1  UNL1       -0.2941
     29 C          63.5485   81.8363   10.6156 C.ar    1  UNL1        0.0783
     30 C          63.3557   83.3238   10.6016 C.ar    1  UNL1        0.0189
     31 C          62.6170   83.9950   11.7212 C.ar    1  UNL1        0.0062
     32 C          62.0710   83.1786   12.8550 C.ar    1  UNL1        0.0608
     33 C          62.2637   81.6911   12.8690 C.ar    1  UNL1        0.2610
     34 O          61.7177   80.8748   14.0028 O.2     1  UNL1       -0.2670
     35 C          63.1952   79.5325   11.7634 C.3     1  UNL1        0.1115
     36 C          62.4725   79.3975    9.2715 C.3     1  UNL1        0.0046
     37 C          62.8215   78.7164   10.5616 C.3     1  UNL1        0.0520
     38 C          62.7968   77.2191   10.6499 C.3     1  UNL1        0.1390
     39 O          63.8989   76.4130   10.0292 O.3     1  UNL1       -0.3819
     40 H          63.8738   76.5192    9.0653 H       1  UNL1        0.2104
@<TRIPOS>BOND
     1    36    37    1
     2    37    38    1
     3    38    39    1
     4    37    35    1
     5    35    28    1
     6    28    29   ar
     7    29    30   ar
     8    30    31   ar
     9    31    22    1
    10    22    23   ar
    11    23    24   ar
    12    24    25   ar
    13    25     1    1
    14     1     2    1
    15     1     3    1
    16     3     4    1
    17     4     5    1
    18     5     6    1
    19     6    16    1
    20    16    17    1
    21    17    18    1
    22    17    19    1
    23    17    20    1
    24     6    10    1
    25    10    11   ar
    26    11    12   ar
    27    12    13   ar
    28    13    14   ar
    29    14    15   ar
    30     6     7    1
    31     7     8    1
    32     8     9    2
    33    25    26   ar
    34    26    27   ar
    35    31    32   ar
    36    32    33   ar
    37    33    34    2
    38    33    28   ar
    39    27    22   ar
    40     8     3   am
    41    15    10   ar
    42    39    40    1
    43    20    21    1
@<TRIPOS>MOLECULE
*****
 40 43 0 0 0
SMALL
GASTEIGER

@<TRIPOS>ATOM
      1 C          62.1503   89.7328   11.5633 C.3     1  UNL1        0.1011
      2 C          60.8663   90.3750   11.1285 C.3     1  UNL1        0.0265
      3 N          63.3232   90.5856   11.9464 N.am    1  UNL1       -0.2438
      4 C          63.9935   90.3866   13.2735 C.3     1  UNL1        0.1009
      5 C          65.1665   91.2395   13.6566 C.3     1  UNL1        0.0662
      6 C          65.6692   92.2913   12.7127 C.3     1  UNL1        0.1600
      7 O          64.9989   92.4902   11.3856 O.3     1  UNL1       -0.4374
      8 C          63.8259   91.6374   11.0025 C.2     1  UNL1        0.4051
      9 O          63.1556   91.8364    9.6754 O.2     1  UNL1       -0.2262
     10 C          66.6299   92.4804   13.8489 C.ar    1  UNL1        0.0138
     11 C          67.3190   91.2934   14.4541 C.ar    1  UNL1       -0.0010
     12 C          68.2797   91.4825   15.5903 C.ar    1  UNL1       -0.0002
     13 C          68.5515   92.8587   16.1215 C.ar    1  UNL1       -0.0000
     14 C          67.8625   94.0458   15.5165 C.ar    1  UNL1       -0.0002
     15 C          66.9017   93.8567   14.3802 C.ar    1  UNL1       -0.0010
     16 C          66.5055   93.4088   12.1633 C.3     1  UNL1        0.0714
     17 C          66.8215   93.4586   10.6978 C.3     1  UNL1        0.0922
     18 C          67.6329   92.2039   10.8301 C.3     1  UNL1        0.0294
     19 C          66.0101   94.7133   10.5655 C.3     1  UNL1        0.0294
     20 O          67.1374   93.5084    9.2323 O.3     1  UNL1       -0.3866
     21 H          67.7002   92.7542    8.9970 H       1  UNL1        0.2102
     22 C          62.4832   85.2478   11.7182 C.ar    1  UNL1        0.0002
     23 C          63.2792   86.0922   12.6686 C.ar    1  UNL1       -0.0003
     24 C          63.1682   87.5872   12.6170 C.ar    1  UNL1       -0.0027
     25 C          62.2612   88.2378   11.6149 C.ar    1  UNL1       -0.0042
     26 C          61.4652   87.3933   10.6645 C.ar    1  UNL1       -0.0027
     27 C          61.5762   85.8984   10.7162 C.ar    1  UNL1       -0.0003
     28 N          62.8161   80.7628   11.8731 N.ar    1  UNL1       -0.2941
     29 C          63.4022   81.5189   10.7178 C.ar    1  UNL1        0.0783
     30 C          63.2913   83.0139   10.6662 C.ar    1  UNL1        0.0189
     31 C          62.5941   83.7528   11.7698 C.ar    1  UNL1        0.0062
     32 C          62.0080   82.9967   12.9251 C.ar    1  UNL1        0.0608
     33 C          62.1190   81.5017   12.9767 C.ar    1  UNL1        0.2610
     34 O          61.5328   80.7455   14.1321 O.2     1  UNL1       -0.2670
     35 C          62.9271   79.2678   11.9247 C.3     1  UNL1        0.1115
     36 C          62.9923   76.9747   10.7052 C.3     1  UNL1        0.0046
     37 C          62.9520   78.4732   10.6528 C.3     1  UNL1        0.0520
     38 C          62.9367   79.1771    9.3282 C.3     1  UNL1        0.1390
     39 O          61.6311   79.4775    8.6536 O.3     1  UNL1       -0.3819
     40 H          61.1991   78.6467    8.4009 H       1  UNL1        0.2104
@<TRIPOS>BOND
     1    36    37    1
     2    37    38    1
     3    38    39    1
     4    37    35    1
     5    35    28    1
     6    28    29   ar
     7    29    30   ar
     8    30    31   ar
     9    31    22    1
    10    22    23   ar
    11    23    24   ar
    12    24    25   ar
    13    25     1    1
    14     1     2    1
    15     1     3    1
    16     3     4    1
    17     4     5    1
    18     5     6    1
    19     6    16    1
    20    16    17    1
    21    17    18    1
    22    17    19    1
    23    17    20    1
    24     6    10    1
    25    10    11   ar
    26    11    12   ar
    27    12    13   ar
    28    13    14   ar
    29    14    15   ar
    30     6     7    1
    31     7     8    1
    32     8     9    2
    33    25    26   ar
    34    26    27   ar
    35    31    32   ar
    36    32    33   ar
    37    33    34    2
    38    33    28   ar
    39    27    22   ar
    40     8     3   am
    41    15    10   ar
    42    39    40    1
    43    20    21    1
@<TRIPOS>MOLECULE
*****
 40 43 0 0 0
SMALL
GASTEIGER

@<TRIPOS>ATOM
      1 C          62.0673   90.4955   11.3206 C.3     1  UNL1        0.1011
      2 C          60.6918   91.0140   11.0221 C.3     1  UNL1        0.0265
      3 N          63.2278   91.4434   11.3885 N.am    1  UNL1       -0.2438
      4 C          63.6809   92.1641   10.1535 C.3     1  UNL1        0.1009
      5 C          64.8414   93.1121   10.2215 C.3     1  UNL1        0.0662
      6 C          65.5487   93.3394   11.5245 C.3     1  UNL1        0.1600
      7 O          65.0956   92.6188   12.7596 O.3     1  UNL1       -0.4374
      8 C          63.9352   91.6708   12.6916 C.2     1  UNL1        0.4051
      9 O          63.4821   90.9502   13.9267 O.2     1  UNL1       -0.2262
     10 C          66.3433   94.2486   10.6347 C.ar    1  UNL1        0.0138
     11 C          66.3736   95.7238   10.9047 C.ar    1  UNL1       -0.0010
     12 C          67.1682   96.6330   10.0149 C.ar    1  UNL1       -0.0002
     13 C          67.9326   96.0671    8.8549 C.ar    1  UNL1       -0.0000
     14 C          67.9023   94.5920    8.5848 C.ar    1  UNL1       -0.0002
     15 C          67.1077   93.6827    9.4746 C.ar    1  UNL1       -0.0010
     16 C          66.5320   93.8825   12.5185 C.3     1  UNL1        0.0714
     17 C          67.1651   92.9671   13.5242 C.3     1  UNL1        0.0922
     18 C          66.6849   93.8544   14.6342 C.3     1  UNL1        0.0294
     19 C          67.6454   92.0798   12.4142 C.3     1  UNL1        0.0294
     20 O          67.7982   92.0517   14.5298 O.3     1  UNL1       -0.3866
     21 H          67.6419   92.3954   15.4233 H       1  UNL1        0.2102
     22 C          62.7124   86.0960   12.0122 C.ar    1  UNL1        0.0002
     23 C          63.4848   87.1022   12.8127 C.ar    1  UNL1       -0.0003
     24 C          63.2698   88.5687   12.5821 C.ar    1  UNL1       -0.0027
     25 C          62.2824   89.0290   11.5511 C.ar    1  UNL1       -0.0042
     26 C          61.5099   88.0227   10.7506 C.ar    1  UNL1       -0.0027
     27 C          61.7250   86.5562   10.9812 C.ar    1  UNL1       -0.0003
     28 N          63.3575   81.6965   12.7038 N.ar    1  UNL1       -0.2941
     29 C          63.4908   82.2660   11.3226 C.ar    1  UNL1        0.0783
     30 C          63.2757   83.7325   11.0920 C.ar    1  UNL1        0.0189
     31 C          62.9274   84.6295   12.2427 C.ar    1  UNL1        0.0062
     32 C          62.7942   84.0599   13.6239 C.ar    1  UNL1        0.0608
     33 C          63.0092   82.5934   13.8545 C.ar    1  UNL1        0.2610
     34 O          62.8759   82.0239   15.2358 O.2     1  UNL1       -0.2670
     35 C          63.5725   80.2300   12.9343 C.3     1  UNL1        0.1115
     36 C          62.4696   78.3883   11.4708 C.3     1  UNL1        0.0046
     37 C          62.4541   79.2606   12.6911 C.3     1  UNL1        0.0520
     38 C          61.3199   79.1634   13.6680 C.3     1  UNL1        0.1390
     39 O          60.6090   80.4053   14.1178 O.3     1  UNL1       -0.3819
     40 H          61.2183   80.9588   14.6310 H       1  UNL1        0.2104
@<TRIPOS>BOND
     1    36    37    1
     2    37    38    1
     3    38    39    1
     4    37    35    1
     5    35    28    1
     6    28    29   ar
     7    29    30   ar
     8    30    31   ar
     9    31    22    1
    10    22    23   ar
    11    23    24   ar
    12    24    25   ar
    13    25     1    1
    14     1     2    1
    15     1     3    1
    16     3     4    1
    17     4     5    1
    18     5     6    1
    19     6    16    1
    20    16    17    1
    21    17    18    1
    22    17    19    1
    23    17    20    1
    24     6    10    1
    25    10    11   ar
    26    11    12   ar
    27    12    13   ar
    28    13    14   ar
    29    14    15   ar
    30     6     7    1
    31     7     8    1
    32     8     9    2
    33    25    26   ar
    34    26    27   ar
    35    31    32   ar
    36    32    33   ar
    37    33    34    2
    38    33    28   ar
    39    27    22   ar
    40     8     3   am
    41    15    10   ar
    42    39    40    1
    43    20    21    1
@<TRIPOS>MOLECULE
*****
 40 43 0 0 0
SMALL
GASTEIGER

@<TRIPOS>ATOM
      1 C          58.5842   90.1772    5.9765 C.3     1  UNL1        0.1011
      2 C          57.0893   90.0802    5.9010 C.3     1  UNL1        0.0265
      3 N          59.3296   91.0432    5.0047 N.am    1  UNL1       -0.2438
      4 C          60.7924   90.8140    4.7649 C.3     1  UNL1        0.1009
      5 C          61.5378   91.6801    3.7930 C.3     1  UNL1        0.0662
      6 C          60.8203   92.7752    3.0610 C.3     1  UNL1        0.1600
      7 O          59.3574   93.0043    3.3008 O.3     1  UNL1       -0.4374
      8 C          58.6120   92.1383    4.2726 C.2     1  UNL1        0.4051
      9 O          57.1492   92.3675    4.5124 O.2     1  UNL1       -0.2262
     10 C          62.2004   92.9471    2.4992 C.ar    1  UNL1        0.0138
     11 C          63.1206   91.7671    2.3961 C.ar    1  UNL1       -0.0010
     12 C          64.5007   91.9390    1.8343 C.ar    1  UNL1       -0.0002
     13 C          64.9607   93.2911    1.3755 C.ar    1  UNL1       -0.0000
     14 C          64.0405   94.4711    1.4785 C.ar    1  UNL1       -0.0002
     15 C          62.6603   94.2992    2.0404 C.ar    1  UNL1       -0.0010
     16 C          60.5820   93.9300    2.1338 C.3     1  UNL1        0.0714
     17 C          59.6574   93.7735    0.9631 C.3     1  UNL1        0.0922
     18 C          59.3827   95.2481    0.9829 C.3     1  UNL1        0.0294
     19 C          59.9320   92.2990    0.9433 C.3     1  UNL1        0.0294
     20 O          58.7327   93.6170   -0.2076 O.3     1  UNL1       -0.3866
     21 H          58.3660   94.4823   -0.4479 H       1  UNL1        0.2102
     22 C          60.8329   87.8703    9.1184 C.ar    1  UNL1        0.0002
     23 C          60.1080   87.1402    8.0270 C.ar    1  UNL1       -0.0003
     24 C          59.3584   87.9091    6.9797 C.ar    1  UNL1       -0.0027
     25 C          59.3338   89.4082    7.0238 C.ar    1  UNL1       -0.0042
     26 C          60.0587   90.1384    8.1152 C.ar    1  UNL1       -0.0027
     27 C          60.8083   89.3694    9.1625 C.ar    1  UNL1       -0.0003
     28 N          63.0816   85.5634   12.2603 N.ar    1  UNL1       -0.2941
     29 C          62.3732   84.8340   11.1576 C.ar    1  UNL1        0.0783
     30 C          61.6237   85.6030   10.1103 C.ar    1  UNL1        0.0189
     31 C          61.5825   87.1014   10.1657 C.ar    1  UNL1        0.0062
     32 C          62.2909   87.8308   11.2684 C.ar    1  UNL1        0.0608
     33 C          63.0405   87.0618   12.3157 C.ar    1  UNL1        0.2610
     34 O          63.7490   87.7913   13.4185 O.2     1  UNL1       -0.2670
     35 C          63.8312   84.7945   13.3076 C.3     1  UNL1        0.1115
     36 C          62.4153   82.9646   14.4895 C.3     1  UNL1        0.0046
     37 C          63.5159   83.3473   13.5449 C.3     1  UNL1        0.0520
     38 C          64.3013   82.2828   12.8377 C.3     1  UNL1        0.1390
     39 O          65.0745   82.6204   11.5975 O.3     1  UNL1       -0.3819
     40 H          64.4587   82.8653   10.8892 H       1  UNL1        0.2104
@<TRIPOS>BOND
     1    36    37    1
     2    37    38    1
     3    38    39    1
     4    37    35    1
     5    35    28    1
     6    28    29   ar
     7    29    30   ar
     8    30    31   ar
     9    31    22    1
    10    22    23   ar
    11    23    24   ar
    12    24    25   ar
    13    25     1    1
    14     1     2    1
    15     1     3    1
    16     3     4    1
    17     4     5    1
    18     5     6    1
    19     6    16    1
    20    16    17    1
    21    17    18    1
    22    17    19    1
    23    17    20    1
    24     6    10    1
    25    10    11   ar
    26    11    12   ar
    27    12    13   ar
    28    13    14   ar
    29    14    15   ar
    30     6     7    1
    31     7     8    1
    32     8     9    2
    33    25    26   ar
    34    26    27   ar
    35    31    32   ar
    36    32    33   ar
    37    33    34    2
    38    33    28   ar
    39    27    22   ar
    40     8     3   am
    41    15    10   ar
    42    39    40    1
    43    20    21    1
@<TRIPOS>MOLECULE
*****
 40 43 0 0 0
SMALL
GASTEIGER

@<TRIPOS>ATOM
      1 C          58.5808   90.1340    6.0336 C.3     1  UNL1        0.1011
      2 C          57.0888   90.0084    5.9435 C.3     1  UNL1        0.0265
      3 N          59.3188   91.0152    5.0699 N.am    1  UNL1       -0.2438
      4 C          60.7694   90.7633    4.7830 C.3     1  UNL1        0.1009
      5 C          61.5073   91.6446    3.8192 C.3     1  UNL1        0.0662
      6 C          60.7947   92.7776    3.1423 C.3     1  UNL1        0.1600
      7 O          59.3441   93.0295    3.4291 O.3     1  UNL1       -0.4374
      8 C          58.6061   92.1483    4.3929 C.2     1  UNL1        0.4051
      9 O          57.1555   92.4002    4.6798 O.2     1  UNL1       -0.2262
     10 C          62.1627   92.9387    2.5487 C.ar    1  UNL1        0.0138
     11 C          63.0525   91.7430    2.3796 C.ar    1  UNL1       -0.0010
     12 C          64.4206   91.9040    1.7861 C.ar    1  UNL1       -0.0002
     13 C          64.8990   93.2608    1.3616 C.ar    1  UNL1       -0.0000
     14 C          64.0094   94.4566    1.5307 C.ar    1  UNL1       -0.0002
     15 C          62.6412   94.2956    2.1243 C.ar    1  UNL1       -0.0010
     16 C          60.5571   93.9667    2.2592 C.3     1  UNL1        0.0714
     17 C          59.6557   93.8467    1.0662 C.3     1  UNL1        0.0922
     18 C          59.8580   92.3604    1.0628 C.3     1  UNL1        0.0294
     19 C          59.4535   95.3331    1.0696 C.3     1  UNL1        0.0294
     20 O          58.7544   93.7268   -0.1268 O.3     1  UNL1       -0.3866
     21 H          58.6834   92.7948   -0.3860 H       1  UNL1        0.2102
     22 C          60.8429   87.8674    9.1952 C.ar    1  UNL1        0.0002
     23 C          60.8189   89.3670    9.2199 C.ar    1  UNL1       -0.0003
     24 C          60.0649   90.1225    8.1661 C.ar    1  UNL1       -0.0027
     25 C          59.3348   89.3785    7.0875 C.ar    1  UNL1       -0.0042
     26 C          59.3588   87.8789    7.0628 C.ar    1  UNL1       -0.0027
     27 C          60.1128   87.1234    8.1167 C.ar    1  UNL1       -0.0003
     28 N          63.1050   85.6009   12.3568 N.ar    1  UNL1       -0.2941
     29 C          62.3727   84.8568   11.2798 C.ar    1  UNL1        0.0783
     30 C          61.6186   85.6123   10.2260 C.ar    1  UNL1        0.0189
     31 C          61.5969   87.1119   10.2491 C.ar    1  UNL1        0.0062
     32 C          62.3292   87.8560   11.3261 C.ar    1  UNL1        0.0608
     33 C          63.0832   87.1005   12.3800 C.ar    1  UNL1        0.2610
     34 O          63.8155   87.8447   13.4570 O.2     1  UNL1       -0.2670
     35 C          63.8590   84.8454   13.4107 C.3     1  UNL1        0.1115
     36 C          62.3942   83.0057   14.5152 C.3     1  UNL1        0.0046
     37 C          63.1358   84.3062   14.6091 C.3     1  UNL1        0.0520
     38 C          63.1542   85.0675   15.9015 C.3     1  UNL1        0.1390
     39 O          63.4773   86.5322   15.9046 O.3     1  UNL1       -0.3819
     40 H          64.3979   86.6608   15.6273 H       1  UNL1        0.2104
@<TRIPOS>BOND
     1    36    37    1
     2    37    38    1
     3    38    39    1
     4    37    35    1
     5    35    28    1
     6    28    29   ar
     7    29    30   ar
     8    30    31   ar
     9    31    22    1
    10    22    23   ar
    11    23    24   ar
    12    24    25   ar
    13    25     1    1
    14     1     2    1
    15     1     3    1
    16     3     4    1
    17     4     5    1
    18     5     6    1
    19     6    16    1
    20    16    17    1
    21    17    18    1
    22    17    19    1
    23    17    20    1
    24     6    10    1
    25    10    11   ar
    26    11    12   ar
    27    12    13   ar
    28    13    14   ar
    29    14    15   ar
    30     6     7    1
    31     7     8    1
    32     8     9    2
    33    25    26   ar
    34    26    27   ar
    35    31    32   ar
    36    32    33   ar
    37    33    34    2
    38    33    28   ar
    39    27    22   ar
    40     8     3   am
    41    15    10   ar
    42    39    40    1
    43    20    21    1
