@<TRIPOS>MOLECULE
*****
 22 25 0 0 0
SMALL
GASTEIGER

@<TRIPOS>ATOM
      1 C          62.8622   84.5244   12.7501 C.ar    1  UNL1        0.0032
      2 C          63.6179   85.3298   13.7651 C.ar    1  UNL1        0.0312
      3 C          63.7494   86.8146   13.5973 C.ar    1  UNL1        0.1558
      4 F          64.5052   87.6201   14.6123 F       1  UNL1       -0.2026
      5 C          63.1253   87.4939   12.4145 C.ar    1  UNL1        0.0896
      6 C          62.3696   86.6885   11.3995 C.ar    1  UNL1       -0.0034
      7 C          62.2381   85.2036   11.5674 C.ar    1  UNL1       -0.0026
      8 C          61.7455   87.3677   10.2168 C.3     1  UNL1        0.0359
      9 C          61.8770   88.8525   10.0489 C.3     1  UNL1        0.0709
     10 C          62.6327   89.6580   11.0639 C.ar    1  UNL1        0.1472
     11 N          62.9269   91.1254   11.1635 N.ar    1  UNL1       -0.1333
     12 N          63.7329   91.3531   12.4079 N.ar    1  UNL1       -0.1333
     13 C          63.9368   90.0263   13.0773 C.ar    1  UNL1        0.1473
     14 C          64.6887   89.7889   14.3534 C.3     1  UNL1        0.0742
     15 N          63.2568   88.9787   12.2467 N.ar    1  UNL1       -0.2788
     16 C          63.7438   82.6824   10.5524 C.3     1  UNL1        0.0311
     17 C          63.1715   82.1186   11.8193 C.ar    1  UNL1       -0.0188
     18 C          63.0400   80.6338   11.9871 C.ar    1  UNL1        0.0164
     19 C          62.4677   80.0701   13.2539 C.ar    1  UNL1        0.0986
     20 N          62.0270   80.9911   14.3527 N.ar    1  UNL1       -0.2423
     21 C          62.1585   82.4759   14.1848 C.ar    1  UNL1        0.0985
     22 C          62.7307   83.0396   12.9180 C.ar    1  UNL1        0.0153
@<TRIPOS>BOND
     1    16    17    1
     2    17    18   ar
     3    18    19   ar
     4    19    20   ar
     5    20    21   ar
     6    21    22   ar
     7    22     1    1
     8     1     2   ar
     9     2     3   ar
    10     3     4    1
    11     3     5   ar
    12     5     6   ar
    13     6     7   ar
    14     6     8    1
    15     8     9    1
    16     9    10    1
    17    10    11   ar
    18    11    12   ar
    19    12    13   ar
    20    13    14    1
    21    13    15   ar
    22    22    17   ar
    23     7     1   ar
    24    15    10   ar
    25    15     5    1
@<TRIPOS>MOLECULE
*****
 22 25 0 0 0
SMALL
GASTEIGER

@<TRIPOS>ATOM
      1 C          62.2396   89.4229   10.5037 C.ar    1  UNL1        0.0032
      2 C          62.8698   90.6620    9.9404 C.ar    1  UNL1        0.0312
      3 C          63.8061   91.4766   10.7829 C.ar    1  UNL1        0.1558
      4 F          64.4364   92.7159   10.2196 F       1  UNL1       -0.2026
      5 C          64.1122   91.0521   12.1886 C.ar    1  UNL1        0.0896
      6 C          63.4820   89.8130   12.7519 C.ar    1  UNL1       -0.0034
      7 C          62.5457   88.9983   11.9094 C.ar    1  UNL1       -0.0026
      8 C          63.7881   89.3884   14.1576 C.3     1  UNL1        0.0359
      9 C          64.7244   90.2031   15.0001 C.3     1  UNL1        0.0709
     10 C          65.3546   91.4422   14.4368 C.ar    1  UNL1        0.1472
     11 N          66.3093   92.4387   15.0245 N.ar    1  UNL1       -0.1333
     12 N          66.5933   93.4791   13.9820 N.ar    1  UNL1       -0.1333
     13 C          65.8141   93.1257   12.7500 C.ar    1  UNL1        0.1473
     14 C          65.8025   93.8959   11.4629 C.3     1  UNL1        0.0742
     15 N          65.0485   91.8667   13.0310 N.ar    1  UNL1       -0.2788
     16 C          62.3688   86.4267   10.5863 C.3     1  UNL1        0.0311
     17 C          61.3679   87.1103    9.7025 C.ar    1  UNL1       -0.0188
     18 C          60.4315   86.2957    8.8599 C.ar    1  UNL1        0.0164
     19 C          59.4307   86.9792    7.9762 C.ar    1  UNL1        0.0986
     20 N          59.3661   88.4772    7.9349 N.ar    1  UNL1       -0.2423
     21 C          60.3024   89.2918    8.7774 C.ar    1  UNL1        0.0985
     22 C          61.3033   88.6082    9.6612 C.ar    1  UNL1        0.0153
@<TRIPOS>BOND
     1    16    17    1
     2    17    18   ar
     3    18    19   ar
     4    19    20   ar
     5    20    21   ar
     6    21    22   ar
     7    22     1    1
     8     1     2   ar
     9     2     3   ar
    10     3     4    1
    11     3     5   ar
    12     5     6   ar
    13     6     7   ar
    14     6     8    1
    15     8     9    1
    16     9    10    1
    17    10    11   ar
    18    11    12   ar
    19    12    13   ar
    20    13    14    1
    21    13    15   ar
    22    22    17   ar
    23     7     1   ar
    24    15    10   ar
    25    15     5    1
@<TRIPOS>MOLECULE
*****
 22 25 0 0 0
SMALL
GASTEIGER

@<TRIPOS>ATOM
      1 C          62.8186   84.4537   12.6798 C.ar    1  UNL1        0.0032
      2 C          62.2420   85.1591   11.4882 C.ar    1  UNL1        0.0312
      3 C          62.3819   86.6468   11.3571 C.ar    1  UNL1        0.1558
      4 F          61.8053   87.3523   10.1654 F       1  UNL1       -0.2026
      5 C          63.0984   87.4291   12.4176 C.ar    1  UNL1        0.0896
      6 C          63.6750   86.7237   13.6092 C.ar    1  UNL1       -0.0034
      7 C          63.5351   85.2359   13.7402 C.ar    1  UNL1       -0.0026
      8 C          64.3915   87.5059   14.6696 C.3     1  UNL1        0.0359
      9 C          64.5315   88.9937   14.5386 C.3     1  UNL1        0.0709
     10 C          63.9549   89.6991   13.3470 C.ar    1  UNL1        0.1472
     11 N          63.9365   91.1450   12.9484 N.ar    1  UNL1       -0.1333
     12 N          63.2087   91.2564   11.6416 N.ar    1  UNL1       -0.1333
     13 C          62.7772   89.8793   11.2325 C.ar    1  UNL1        0.1473
     14 C          62.0178   89.5266    9.9879 C.3     1  UNL1        0.0742
     15 N          63.2383   88.9168   12.2865 N.ar    1  UNL1       -0.2788
     16 C          63.8582   82.6529   10.5173 C.3     1  UNL1        0.0311
     17 C          63.1984   82.0656   11.7297 C.ar    1  UNL1       -0.0188
     18 C          63.0584   80.5779   11.8607 C.ar    1  UNL1        0.0164
     19 C          62.3986   79.9906   13.0731 C.ar    1  UNL1        0.0986
     20 N          61.8788   80.8910   14.1543 N.ar    1  UNL1       -0.2423
     21 C          62.0188   82.3787   14.0232 C.ar    1  UNL1        0.0985
     22 C          62.6786   82.9660   12.8109 C.ar    1  UNL1        0.0153
@<TRIPOS>BOND
     1    16    17    1
     2    17    18   ar
     3    18    19   ar
     4    19    20   ar
     5    20    21   ar
     6    21    22   ar
     7    22     1    1
     8     1     2   ar
     9     2     3   ar
    10     3     4    1
    11     3     5   ar
    12     5     6   ar
    13     6     7   ar
    14     6     8    1
    15     8     9    1
    16     9    10    1
    17    10    11   ar
    18    11    12   ar
    19    12    13   ar
    20    13    14    1
    21    13    15   ar
    22    22    17   ar
    23     7     1   ar
    24    15    10   ar
    25    15     5    1
@<TRIPOS>MOLECULE
*****
 22 25 0 0 0
SMALL
GASTEIGER

@<TRIPOS>ATOM
      1 C          62.9320   84.6304   12.5488 C.ar    1  UNL1        0.0032
      2 C          62.3611   85.3580   11.3678 C.ar    1  UNL1        0.0312
      3 C          62.4662   86.8520   11.2849 C.ar    1  UNL1        0.1558
      4 F          61.8953   87.5796   10.1038 F       1  UNL1       -0.2026
      5 C          63.1420   87.6184   12.3830 C.ar    1  UNL1        0.0896
      6 C          63.7128   86.8909   13.5640 C.ar    1  UNL1       -0.0034
      7 C          63.6078   85.3968   13.6469 C.ar    1  UNL1       -0.0026
      8 C          64.3887   87.6573   14.6620 C.3     1  UNL1        0.0359
      9 C          64.4937   89.1514   14.5791 C.3     1  UNL1        0.0709
     10 C          63.9229   89.8789   13.3981 C.ar    1  UNL1        0.1472
     11 N          63.8760   91.3356   13.0435 N.ar    1  UNL1       -0.1333
     12 N          63.1711   91.4695   11.7262 N.ar    1  UNL1       -0.1333
     13 C          62.7824   90.0955   11.2667 C.ar    1  UNL1        0.1473
     14 C          62.0565   89.7630    9.9969 C.3     1  UNL1        0.0742
     15 N          63.2470   89.1125   12.3001 N.ar    1  UNL1       -0.2788
     16 C          62.1204   83.3243   15.1248 C.3     1  UNL1        0.0311
     17 C          62.4211   82.4833   13.9196 C.ar    1  UNL1       -0.0188
     18 C          62.3161   80.9892   14.0024 C.ar    1  UNL1        0.0164
     19 C          62.6168   80.1483   12.7973 C.ar    1  UNL1        0.0986
     20 N          63.0226   80.8014   11.5093 N.ar    1  UNL1       -0.2423
     21 C          63.1277   82.2954   11.4265 C.ar    1  UNL1        0.0985
     22 C          62.8269   83.1363   12.6317 C.ar    1  UNL1        0.0153
@<TRIPOS>BOND
     1    16    17    1
     2    17    18   ar
     3    18    19   ar
     4    19    20   ar
     5    20    21   ar
     6    21    22   ar
     7    22     1    1
     8     1     2   ar
     9     2     3   ar
    10     3     4    1
    11     3     5   ar
    12     5     6   ar
    13     6     7   ar
    14     6     8    1
    15     8     9    1
    16     9    10    1
    17    10    11   ar
    18    11    12   ar
    19    12    13   ar
    20    13    14    1
    21    13    15   ar
    22    22    17   ar
    23     7     1   ar
    24    15    10   ar
    25    15     5    1
@<TRIPOS>MOLECULE
*****
 22 25 0 0 0
SMALL
GASTEIGER

@<TRIPOS>ATOM
      1 C          62.7348   89.5900   10.9247 C.ar    1  UNL1        0.0032
      2 C          62.9989   89.3715   12.3850 C.ar    1  UNL1        0.0312
      3 C          63.8922   90.3146   13.1350 C.ar    1  UNL1        0.1558
      4 F          64.1563   90.0961   14.5954 F       1  UNL1       -0.2026
      5 C          64.5215   91.4762   12.4246 C.ar    1  UNL1        0.0896
      6 C          64.2575   91.6947   10.9643 C.ar    1  UNL1       -0.0034
      7 C          63.3640   90.7515   10.2144 C.ar    1  UNL1       -0.0026
      8 C          64.8867   92.8563   10.2539 C.3     1  UNL1        0.0359
      9 C          65.7801   93.7995   11.0038 C.3     1  UNL1        0.0709
     10 C          66.0442   93.5810   12.4641 C.ar    1  UNL1        0.1472
     11 N          66.8742   94.3379   13.4582 N.ar    1  UNL1       -0.1333
     12 N          66.7579   93.6440   14.7830 N.ar    1  UNL1       -0.1333
     13 C          65.8560   92.4583   14.6077 C.ar    1  UNL1        0.1473
     14 C          65.4640   91.4829   15.6776 C.3     1  UNL1        0.0742
     15 N          65.4149   92.4194   13.1745 N.ar    1  UNL1       -0.2788
     16 C          59.8449   90.2764   10.5036 C.3     1  UNL1        0.0311
     17 C          60.3965   88.9900    9.9643 C.ar    1  UNL1       -0.0188
     18 C          59.5031   88.0467    9.2144 C.ar    1  UNL1        0.0164
     19 C          60.0548   86.7603    8.6751 C.ar    1  UNL1        0.0986
     20 N          61.4997   86.4172    8.8857 N.ar    1  UNL1       -0.2423
     21 C          62.3930   87.3604    9.6356 C.ar    1  UNL1        0.0985
     22 C          61.8414   88.6468   10.1748 C.ar    1  UNL1        0.0153
@<TRIPOS>BOND
     1    16    17    1
     2    17    18   ar
     3    18    19   ar
     4    19    20   ar
     5    20    21   ar
     6    21    22   ar
     7    22     1    1
     8     1     2   ar
     9     2     3   ar
    10     3     4    1
    11     3     5   ar
    12     5     6   ar
    13     6     7   ar
    14     6     8    1
    15     8     9    1
    16     9    10    1
    17    10    11   ar
    18    11    12   ar
    19    12    13   ar
    20    13    14    1
    21    13    15   ar
    22    22    17   ar
    23     7     1   ar
    24    15    10   ar
    25    15     5    1
@<TRIPOS>MOLECULE
*****
 22 25 0 0 0
SMALL
GASTEIGER

@<TRIPOS>ATOM
      1 C          62.9142   89.7768   12.1206 C.ar    1  UNL1        0.0032
      2 C          62.0286   90.5410   11.1816 C.ar    1  UNL1        0.0312
      3 C          61.2669   89.8160   10.1119 C.ar    1  UNL1        0.1558
      4 F          60.3811   90.5802    9.1729 F       1  UNL1       -0.2026
      5 C          61.3908   88.3269    9.9812 C.ar    1  UNL1        0.0896
      6 C          62.2765   87.5627   10.9201 C.ar    1  UNL1       -0.0034
      7 C          63.0382   88.2878   11.9898 C.ar    1  UNL1       -0.0026
      8 C          62.4005   86.0736   10.7894 C.3     1  UNL1        0.0359
      9 C          61.6388   85.3486    9.7197 C.3     1  UNL1        0.0709
     10 C          60.7531   86.1127    8.7808 C.ar    1  UNL1        0.1472
     11 N          59.8869   85.6740    7.6375 N.ar    1  UNL1       -0.1333
     12 N          59.2276   86.8921    7.0616 N.ar    1  UNL1       -0.1333
     13 C          59.6863   88.0836    7.8490 C.ar    1  UNL1        0.1473
     14 C          59.2744   89.5068    7.6149 C.3     1  UNL1        0.0742
     15 N          60.6292   87.6019    8.9115 N.ar    1  UNL1       -0.2788
     16 C          64.9289   91.8696   11.3710 C.3     1  UNL1        0.0311
     17 C          64.6832   91.5482   12.8156 C.ar    1  UNL1       -0.0188
     18 C          65.4449   92.2733   13.8853 C.ar    1  UNL1        0.0164
     19 C          65.1992   91.9519   15.3297 C.ar    1  UNL1        0.0986
     20 N          64.1919   90.9055   15.7044 N.ar    1  UNL1       -0.2423
     21 C          63.4302   90.1805   14.6347 C.ar    1  UNL1        0.0985
     22 C          63.6759   90.5019   13.1903 C.ar    1  UNL1        0.0153
@<TRIPOS>BOND
     1    16    17    1
     2    17    18   ar
     3    18    19   ar
     4    19    20   ar
     5    20    21   ar
     6    21    22   ar
     7    22     1    1
     8     1     2   ar
     9     2     3   ar
    10     3     4    1
    11     3     5   ar
    12     5     6   ar
    13     6     7   ar
    14     6     8    1
    15     8     9    1
    16     9    10    1
    17    10    11   ar
    18    11    12   ar
    19    12    13   ar
    20    13    14    1
    21    13    15   ar
    22    22    17   ar
    23     7     1   ar
    24    15    10   ar
    25    15     5    1
@<TRIPOS>MOLECULE
*****
 22 25 0 0 0
SMALL
GASTEIGER

@<TRIPOS>ATOM
      1 C          62.0801   93.4365    1.2923 C.ar    1  UNL1        0.0032
      2 C          61.8113   92.9727   -0.1087 C.ar    1  UNL1        0.0312
      3 C          62.5657   93.5762   -1.2561 C.ar    1  UNL1        0.1558
      4 F          62.2970   93.1124   -2.6572 F       1  UNL1       -0.2026
      5 C          63.5889   94.6433   -1.0027 C.ar    1  UNL1        0.0896
      6 C          63.8577   95.1071    0.3983 C.ar    1  UNL1       -0.0034
      7 C          63.1032   94.5036    1.5458 C.ar    1  UNL1       -0.0026
      8 C          64.8808   96.1742    0.6518 C.3     1  UNL1        0.0359
      9 C          65.6353   96.7777   -0.4957 C.3     1  UNL1        0.0709
     10 C          65.3665   96.3139   -1.8966 C.ar    1  UNL1        0.1472
     11 N          65.9494   96.7205   -3.2176 N.ar    1  UNL1       -0.1333
     12 N          65.2865   95.9045   -4.2875 N.ar    1  UNL1       -0.1333
     13 C          64.2939   94.9937   -3.6278 C.ar    1  UNL1        0.1473
     14 C          63.4075   94.0037   -4.3236 C.3     1  UNL1        0.0742
     15 N          64.3433   95.2468   -2.1501 N.ar    1  UNL1       -0.2788
     16 C          63.3864   91.3614    3.0209 C.3     1  UNL1        0.0311
     17 C          61.9787   91.7955    3.3040 C.ar    1  UNL1       -0.0188
     18 C          61.2242   91.1920    4.4515 C.ar    1  UNL1        0.0164
     19 C          59.8165   91.6261    4.7346 C.ar    1  UNL1        0.0986
     20 N          59.1634   92.6636    3.8703 N.ar    1  UNL1       -0.2423
     21 C          59.9180   93.2670    2.7228 C.ar    1  UNL1        0.0985
     22 C          61.3256   92.8330    2.4398 C.ar    1  UNL1        0.0153
@<TRIPOS>BOND
     1    16    17    1
     2    17    18   ar
     3    18    19   ar
     4    19    20   ar
     5    20    21   ar
     6    21    22   ar
     7    22     1    1
     8     1     2   ar
     9     2     3   ar
    10     3     4    1
    11     3     5   ar
    12     5     6   ar
    13     6     7   ar
    14     6     8    1
    15     8     9    1
    16     9    10    1
    17    10    11   ar
    18    11    12   ar
    19    12    13   ar
    20    13    14    1
    21    13    15   ar
    22    22    17   ar
    23     7     1   ar
    24    15    10   ar
    25    15     5    1
