@<TRIPOS>MOLECULE
*****
 48 52 0 0 0
SMALL
GASTEIGER

@<TRIPOS>ATOM
      1 N          63.5213   88.2393   13.1044 N.3     1  UNL1       -0.2648
      2 C          63.1597   87.8555   11.7001 C.3     1  UNL1        0.0926
      3 C          62.2597   86.6816   11.4516 C.3     1  UNL1        0.0950
      4 N          62.8247   85.2921   11.4421 N.am    1  UNL1       -0.2706
      5 C          63.2173   84.6509   10.1442 C.2     1  UNL1        0.4020
      6 O          63.0448   85.3991    8.8556 O.2     1  UNL1       -0.2264
      7 H          62.9379   84.8010   12.2879 H       1  UNL1        0.1527
      8 O          63.7823   83.2614   10.1348 O.3     1  UNL1       -0.4274
      9 C          64.3310   82.6663   11.3977 C.3     1  UNL1        0.2621
     10 C          63.3965   82.1522   12.4523 C.ar    1  UNL1        0.1323
     11 N          62.8665   82.9338   13.6177 N.ar    1  UNL1       -0.2374
     12 C          61.9703   82.0308   14.4124 C.ar    1  UNL1        0.1062
     13 C          61.9465   80.6910   13.7382 C.ar    1  UNL1        0.0573
     14 S          62.8279   80.7661   12.5268 S.2     1  UNL1       -0.0666
     15 C          60.7947   86.8972   11.2124 C.3     1  UNL1        0.0474
     16 C          60.3213   87.4389    9.8962 C.ar    1  UNL1       -0.0205
     17 C          60.3745   88.9140    9.6295 C.ar    1  UNL1       -0.0042
     18 C          59.9011   89.4558    8.3133 C.ar    1  UNL1       -0.0003
     19 C          59.3746   88.5225    7.2638 C.ar    1  UNL1       -0.0000
     20 C          59.3214   87.0473    7.5305 C.ar    1  UNL1       -0.0003
     21 C          59.7948   86.5056    8.8467 C.ar    1  UNL1       -0.0042
     22 C          64.2133   87.2522   13.9971 C.3     1  UNL1        0.1181
     23 C          63.6913   86.9972   15.3800 C.ar    1  UNL1        0.0706
     24 C          63.5150   85.6530   16.0218 C.ar    1  UNL1        0.1145
     25 N          62.9687   85.8666   17.4024 N.ar    1  UNL1       -0.2228
     26 C          62.8072   87.3429   17.6137 C.ar    1  UNL1        0.1748
     27 N          63.2538   88.0416   16.3638 N.ar    1  UNL1       -0.3371
     28 H          63.2589   89.0148   16.2152 H       1  UNL1        0.1672
     29 C          63.1910   89.6101   13.6159 C.3     1  UNL1        0.0926
     30 C          64.2692   90.6462   13.7349 C.3     1  UNL1        0.0950
     31 O          62.3670   91.0926   11.4585 O.2     1  UNL1       -0.2264
     32 C          63.7658   91.6286   11.3831 C.2     1  UNL1        0.4020
     33 N          64.7170   91.4054   12.5213 N.am    1  UNL1       -0.2706
     34 H          65.6351   91.7573   12.4718 H       1  UNL1        0.1527
     35 O          64.2137   92.3880   10.1694 O.3     1  UNL1       -0.4291
     36 C          65.0998   93.5887   10.3207 C.3     1  UNL1        0.2447
     37 C          66.5620   93.4868   10.0019 C.ar    1  UNL1        0.0714
     38 C          67.4360   94.6004    9.5059 C.ar    1  UNL1        0.1053
     39 N          68.8210   94.0552    9.3206 N.ar    1  UNL1       -0.2350
     40 C          68.8030   92.6046    9.7021 C.ar    1  UNL1        0.1343
     41 S          67.4068   92.2533   10.1231 S.2     1  UNL1       -0.0652
     42 C          64.8996   90.9229   15.0676 C.3     1  UNL1        0.0474
     43 C          66.2200   91.6309   15.1402 C.ar    1  UNL1       -0.0205
     44 C          67.3167   91.2728   14.1816 C.ar    1  UNL1       -0.0042
     45 C          68.6371   91.9809   14.2542 C.ar    1  UNL1       -0.0003
     46 C          68.8608   93.0470   15.2854 C.ar    1  UNL1       -0.0000
     47 C          67.7640   93.4051   16.2440 C.ar    1  UNL1       -0.0003
     48 C          66.4436   92.6971   16.1714 C.ar    1  UNL1       -0.0042
@<TRIPOS>BOND
     1    31    32    2
     2    32    33   am
     3    33    30    1
     4    30    42    1
     5    42    43    1
     6    43    44   ar
     7    44    45   ar
     8    45    46   ar
     9    46    47   ar
    10    47    48   ar
    11    30    29    1
    12    29     1    1
    13     1    22    1
    14    22    23    1
    15    23    24   ar
    16    24    25   ar
    17    25    26   ar
    18    26    27   ar
    19     1     2    1
    20     3     2    1
    21     3    15    1
    22    15    16    1
    23    16    17   ar
    24    17    18   ar
    25    18    19   ar
    26    19    20   ar
    27    20    21   ar
    28     3     4    1
    29     4     5   am
    30     5     6    2
    31     5     8    1
    32     8     9    1
    33     9    10    1
    34    10    11   ar
    35    11    12   ar
    36    12    13   ar
    37    13    14   ar
    38    32    35    1
    39    35    36    1
    40    36    37    1
    41    37    38   ar
    42    38    39   ar
    43    39    40   ar
    44    40    41   ar
    45    48    43   ar
    46    27    23   ar
    47    21    16   ar
    48    14    10   ar
    49    41    37   ar
    50    33    34    1
    51    27    28    1
    52     4     7    1
@<TRIPOS>MOLECULE
*****
 48 52 0 0 0
SMALL
GASTEIGER

@<TRIPOS>ATOM
      1 N          63.3808   90.6575   11.5161 N.3     1  UNL1       -0.2648
      2 C          64.3398   90.0948   12.5229 C.3     1  UNL1        0.0926
      3 C          64.0591   90.2406   13.9892 C.3     1  UNL1        0.0950
      4 N          63.4197   89.1144   14.7461 N.am    1  UNL1       -0.2706
      5 C          63.0036   89.3111   16.1737 C.2     1  UNL1        0.4020
      6 O          63.2268   90.6341   16.8445 O.2     1  UNL1       -0.2264
      7 H          63.2732   88.2461   14.3059 H       1  UNL1        0.1527
      8 O          62.3642   88.1849   16.9305 O.3     1  UNL1       -0.4274
      9 C          63.1609   86.9590   17.2659 C.3     1  UNL1        0.2621
     10 C          63.1401   85.7757   16.3443 C.ar    1  UNL1        0.1323
     11 N          61.9706   84.8687   16.1003 N.ar    1  UNL1       -0.2374
     12 C          62.3928   83.8241   15.1101 C.ar    1  UNL1        0.1062
     13 C          63.8234   84.0854   14.7422 C.ar    1  UNL1        0.0573
     14 S          64.2852   85.2916   15.5049 S.2     1  UNL1       -0.0666
     15 C          64.4178   91.5126   14.6986 C.3     1  UNL1        0.0474
     16 C          65.8585   91.8800   14.8972 C.ar    1  UNL1       -0.0205
     17 C          66.2784   92.6317   16.1254 C.ar    1  UNL1       -0.0042
     18 C          67.7191   92.9991   16.3240 C.ar    1  UNL1       -0.0003
     19 C          68.7399   92.6147   15.2944 C.ar    1  UNL1       -0.0000
     20 C          68.3200   91.8630   14.0662 C.ar    1  UNL1       -0.0003
     21 C          66.8794   91.4956   13.8676 C.ar    1  UNL1       -0.0042
     22 C          63.8577   91.6537   10.5012 C.3     1  UNL1        0.1181
     23 C          65.0284   92.5386   10.8116 C.ar    1  UNL1        0.0706
     24 C          66.4183   92.3845   10.2691 C.ar    1  UNL1        0.1145
     25 N          67.2637   93.4837   10.8411 N.ar    1  UNL1       -0.2228
     26 C          66.3962   94.3172   11.7372 C.ar    1  UNL1        0.1748
     27 N          65.0147   93.7331   11.7189 N.ar    1  UNL1       -0.3371
     28 H          64.2358   94.0738   12.2152 H       1  UNL1        0.1672
     29 C          61.9448   90.2239   11.5243 C.3     1  UNL1        0.0926
     30 C          61.5046   89.0711   10.6714 C.3     1  UNL1        0.0950
     31 O          59.0722   87.8841    9.3774 O.2     1  UNL1       -0.2264
     32 C          60.0449   88.6794    8.5582 C.2     1  UNL1        0.4020
     33 N          61.2611   89.2729    9.2052 N.am    1  UNL1       -0.2706
     34 H          61.8996   89.7949    8.6674 H       1  UNL1        0.1527
     35 O          59.8015   88.8813    7.0918 O.3     1  UNL1       -0.4291
     36 C          58.7171   89.8103    6.6325 C.3     1  UNL1        0.2447
     37 C          58.9941   90.8080    5.5472 C.ar    1  UNL1        0.0714
     38 C          57.9741   91.6593    4.8509 C.ar    1  UNL1        0.1053
     39 N          58.6894   92.5070    3.8411 N.ar    1  UNL1       -0.2350
     40 C          60.1515   92.1796    3.9133 C.ar    1  UNL1        0.1343
     41 S          60.3398   91.1296    4.9678 S.2     1  UNL1       -0.0652
     42 C          61.3078   87.7165   11.2849 C.3     1  UNL1        0.0474
     43 C          62.0269   86.5266   10.7220 C.ar    1  UNL1       -0.0205
     44 C          62.3700   86.4789    9.2626 C.ar    1  UNL1       -0.0042
     45 C          63.0891   85.2889    8.6997 C.ar    1  UNL1       -0.0003
     46 C          63.4652   84.1467    9.5962 C.ar    1  UNL1       -0.0000
     47 C          63.1221   84.1944   11.0557 C.ar    1  UNL1       -0.0003
     48 C          62.4030   85.3843   11.6186 C.ar    1  UNL1       -0.0042
@<TRIPOS>BOND
     1    31    32    2
     2    32    33   am
     3    33    30    1
     4    30    42    1
     5    42    43    1
     6    43    44   ar
     7    44    45   ar
     8    45    46   ar
     9    46    47   ar
    10    47    48   ar
    11    30    29    1
    12    29     1    1
    13     1    22    1
    14    22    23    1
    15    23    24   ar
    16    24    25   ar
    17    25    26   ar
    18    26    27   ar
    19     1     2    1
    20     3     2    1
    21     3    15    1
    22    15    16    1
    23    16    17   ar
    24    17    18   ar
    25    18    19   ar
    26    19    20   ar
    27    20    21   ar
    28     3     4    1
    29     4     5   am
    30     5     6    2
    31     5     8    1
    32     8     9    1
    33     9    10    1
    34    10    11   ar
    35    11    12   ar
    36    12    13   ar
    37    13    14   ar
    38    32    35    1
    39    35    36    1
    40    36    37    1
    41    37    38   ar
    42    38    39   ar
    43    39    40   ar
    44    40    41   ar
    45    48    43   ar
    46    27    23   ar
    47    21    16   ar
    48    14    10   ar
    49    41    37   ar
    50    33    34    1
    51    27    28    1
    52     4     7    1
@<TRIPOS>MOLECULE
*****
 48 52 0 0 0
SMALL
GASTEIGER

@<TRIPOS>ATOM
      1 N          63.5289   88.4465   13.1496 N.3     1  UNL1       -0.2648
      2 C          63.2816   89.8345   13.6617 C.3     1  UNL1        0.0926
      3 C          64.4144   90.8136   13.7517 C.3     1  UNL1        0.0950
      4 N          65.0104   91.3880   12.5007 N.am    1  UNL1       -0.2706
      5 C          64.1290   91.7176   11.3327 C.2     1  UNL1        0.4020
      6 O          62.6514   91.4728   11.4156 O.2     1  UNL1       -0.2264
      7 H          65.9802   91.5487   12.4463 H       1  UNL1        0.1527
      8 O          64.7250   92.2920   10.0819 O.3     1  UNL1       -0.4274
      9 C          66.1473   92.7687   10.0791 C.3     1  UNL1        0.2621
     10 C          66.4457   94.2385   10.0534 C.ar    1  UNL1        0.1323
     11 N          67.1216   94.9816    8.9395 N.ar    1  UNL1       -0.2374
     12 C          67.2141   96.4256    9.3348 C.ar    1  UNL1        0.1062
     13 C          66.5954   96.5749   10.6931 C.ar    1  UNL1        0.0573
     14 S          66.1204   95.2232   11.1372 S.2     1  UNL1       -0.0666
     15 C          64.9511   91.2184   15.0926 C.3     1  UNL1        0.0474
     16 C          66.3200   91.8220   15.2015 C.ar    1  UNL1       -0.0205
     17 C          67.3750   91.4749   14.1934 C.ar    1  UNL1       -0.0042
     18 C          68.7439   92.0785   14.3022 C.ar    1  UNL1       -0.0003
     19 C          69.0577   93.0292   15.4193 C.ar    1  UNL1       -0.0000
     20 C          68.0027   93.3762   16.4274 C.ar    1  UNL1       -0.0003
     21 C          66.6338   92.7726   16.3185 C.ar    1  UNL1       -0.0042
     22 C          64.1578   87.4185   14.0428 C.3     1  UNL1        0.1181
     23 C          63.6160   87.1919   15.4230 C.ar    1  UNL1        0.0706
     24 C          63.4342   88.2387   16.4817 C.ar    1  UNL1        0.1145
     25 N          62.8666   87.5724   17.6999 N.ar    1  UNL1       -0.2228
     26 C          62.6977   86.1136   17.3940 C.ar    1  UNL1        0.1748
     27 N          63.1608   85.8785   15.9868 N.ar    1  UNL1       -0.3371
     28 H          63.1653   85.0139   15.5159 H       1  UNL1        0.1672
     29 C          63.1472   88.0864   11.7444 C.3     1  UNL1        0.0926
     30 C          62.1745   86.9725   11.4934 C.3     1  UNL1        0.0950
     31 O          62.9341   85.6639    8.9030 O.2     1  UNL1       -0.2264
     32 C          63.0296   84.8955   10.1877 C.2     1  UNL1        0.4020
     33 N          62.6498   85.5498   11.4829 N.am    1  UNL1       -0.2706
     34 H          62.7125   85.0455   12.3261 H       1  UNL1        0.1527
     35 O          63.5050   83.4728   10.1772 O.3     1  UNL1       -0.4291
     36 C          64.3241   82.9473   11.3187 C.3     1  UNL1        0.2447
     37 C          63.6740   82.6647   12.6406 C.ar    1  UNL1        0.0714
     38 C          64.0908   83.2286   13.9666 C.ar    1  UNL1        0.1053
     39 N          63.1674   82.6809   15.0141 N.ar    1  UNL1       -0.2350
     40 C          62.1798   81.7786   14.3355 C.ar    1  UNL1        0.1343
     41 S          62.4929   81.7686   12.8685 S.2     1  UNL1       -0.0652
     42 C          60.7264   87.2812   11.2530 C.3     1  UNL1        0.0474
     43 C          60.2698   87.7258    9.8952 C.ar    1  UNL1       -0.0205
     44 C          59.6718   86.7331    8.9427 C.ar    1  UNL1       -0.0042
     45 C          59.2151   87.1778    7.5848 C.ar    1  UNL1       -0.0003
     46 C          59.3565   88.6150    7.1794 C.ar    1  UNL1       -0.0000
     47 C          59.9545   89.6076    8.1318 C.ar    1  UNL1       -0.0003
     48 C          60.4111   89.1630    9.4896 C.ar    1  UNL1       -0.0042
@<TRIPOS>BOND
     1    31    32    2
     2    32    33   am
     3    33    30    1
     4    30    42    1
     5    42    43    1
     6    43    44   ar
     7    44    45   ar
     8    45    46   ar
     9    46    47   ar
    10    47    48   ar
    11    30    29    1
    12    29     1    1
    13     1    22    1
    14    22    23    1
    15    23    24   ar
    16    24    25   ar
    17    25    26   ar
    18    26    27   ar
    19     1     2    1
    20     3     2    1
    21     3    15    1
    22    15    16    1
    23    16    17   ar
    24    17    18   ar
    25    18    19   ar
    26    19    20   ar
    27    20    21   ar
    28     3     4    1
    29     4     5   am
    30     5     6    2
    31     5     8    1
    32     8     9    1
    33     9    10    1
    34    10    11   ar
    35    11    12   ar
    36    12    13   ar
    37    13    14   ar
    38    32    35    1
    39    35    36    1
    40    36    37    1
    41    37    38   ar
    42    38    39   ar
    43    39    40   ar
    44    40    41   ar
    45    48    43   ar
    46    27    23   ar
    47    21    16   ar
    48    14    10   ar
    49    41    37   ar
    50    33    34    1
    51    27    28    1
    52     4     7    1
@<TRIPOS>MOLECULE
*****
 48 52 0 0 0
SMALL
GASTEIGER

@<TRIPOS>ATOM
      1 N          62.7943   89.1016   11.5985 N.3     1  UNL1       -0.2648
      2 C          63.7486   88.9325   12.7433 C.3     1  UNL1        0.0926
      3 C          63.9647   90.0572   13.7120 C.3     1  UNL1        0.0950
      4 N          64.4291   91.3948   13.2167 N.am    1  UNL1       -0.2706
      5 C          65.7471   91.9470   13.6724 C.2     1  UNL1        0.4020
      6 O          66.6009   91.1618   14.6233 O.2     1  UNL1       -0.2264
      7 H          63.8687   91.9102   12.5925 H       1  UNL1        0.1527
      8 O          66.2114   93.2846   13.1770 O.3     1  UNL1       -0.4274
      9 C          65.8782   93.7248   11.7823 C.3     1  UNL1        0.2621
     10 C          66.8666   93.5156   10.6736 C.ar    1  UNL1        0.1323
     11 N          67.8989   92.4294   10.6060 N.ar    1  UNL1       -0.2374
     12 C          68.6665   92.5983    9.3284 C.ar    1  UNL1        0.1062
     13 C          68.1085   93.7888    8.6063 C.ar    1  UNL1        0.0573
     14 S          66.9961   94.3557    9.4376 S.2     1  UNL1       -0.0666
     15 C          63.7166   89.8443   15.1759 C.3     1  UNL1        0.0474
     16 C          63.6314   88.4520   15.7275 C.ar    1  UNL1       -0.0205
     17 C          64.2666   87.3121   14.9879 C.ar    1  UNL1       -0.0042
     18 C          64.1814   85.9198   15.5395 C.ar    1  UNL1       -0.0003
     19 C          63.4610   85.6675   16.8308 C.ar    1  UNL1       -0.0000
     20 C          62.8258   86.8074   17.5704 C.ar    1  UNL1       -0.0003
     21 C          62.9110   88.1997   17.0188 C.ar    1  UNL1       -0.0042
     22 C          61.8294   90.2499   11.5898 C.3     1  UNL1        0.1181
     23 C          60.3868   90.0200   11.9305 C.ar    1  UNL1        0.0706
     24 C          59.2304   90.8659   11.4865 C.ar    1  UNL1        0.1145
     25 N          57.9762   90.2724   12.0566 N.ar    1  UNL1       -0.2228
     26 C          58.3576   89.0597   12.8529 C.ar    1  UNL1        0.1748
     27 N          59.8474   88.9037   12.7749 N.ar    1  UNL1       -0.3371
     28 H          60.3780   88.1934   13.2028 H       1  UNL1        0.1672
     29 C          62.8051   88.1223   10.4623 C.3     1  UNL1        0.0926
     30 C          61.5434   87.4096   10.0746 C.3     1  UNL1        0.0950
     31 O          60.8748   85.9720    7.5277 O.2     1  UNL1       -0.2264
     32 C          60.2690   87.3143    7.8125 C.2     1  UNL1        0.4020
     33 N          60.6033   88.0331    9.0860 N.am    1  UNL1       -0.2706
     34 H          60.2057   88.9141    9.2729 H       1  UNL1        0.1527
     35 O          59.3288   87.9380    6.8239 O.3     1  UNL1       -0.4291
     36 C          58.8091   89.3258    7.0557 C.3     1  UNL1        0.2447
     37 C          58.9039   90.3537    5.9674 C.ar    1  UNL1        0.0714
     38 C          57.7545   91.0979    5.3549 C.ar    1  UNL1        0.1053
     39 N          58.3050   92.0219    4.3094 N.ar    1  UNL1       -0.2350
     40 C          59.7947   91.8489    4.2758 C.ar    1  UNL1        0.1343
     41 S          60.1648   90.8178    5.3005 S.2     1  UNL1       -0.0652
     42 C          61.2219   86.0733   10.6754 C.3     1  UNL1        0.0474
     43 C          62.3188   85.0828   10.9317 C.ar    1  UNL1       -0.0205
     44 C          63.0073   84.4116    9.7804 C.ar    1  UNL1       -0.0042
     45 C          64.1042   83.4210   10.0367 C.ar    1  UNL1       -0.0003
     46 C          64.5125   83.1017   11.4443 C.ar    1  UNL1       -0.0000
     47 C          63.8240   83.7728   12.5956 C.ar    1  UNL1       -0.0003
     48 C          62.7271   84.7633   12.3393 C.ar    1  UNL1       -0.0042
@<TRIPOS>BOND
     1    31    32    2
     2    32    33   am
     3    33    30    1
     4    30    42    1
     5    42    43    1
     6    43    44   ar
     7    44    45   ar
     8    45    46   ar
     9    46    47   ar
    10    47    48   ar
    11    30    29    1
    12    29     1    1
    13     1    22    1
    14    22    23    1
    15    23    24   ar
    16    24    25   ar
    17    25    26   ar
    18    26    27   ar
    19     1     2    1
    20     3     2    1
    21     3    15    1
    22    15    16    1
    23    16    17   ar
    24    17    18   ar
    25    18    19   ar
    26    19    20   ar
    27    20    21   ar
    28     3     4    1
    29     4     5   am
    30     5     6    2
    31     5     8    1
    32     8     9    1
    33     9    10    1
    34    10    11   ar
    35    11    12   ar
    36    12    13   ar
    37    13    14   ar
    38    32    35    1
    39    35    36    1
    40    36    37    1
    41    37    38   ar
    42    38    39   ar
    43    39    40   ar
    44    40    41   ar
    45    48    43   ar
    46    27    23   ar
    47    21    16   ar
    48    14    10   ar
    49    41    37   ar
    50    33    34    1
    51    27    28    1
    52     4     7    1
@<TRIPOS>MOLECULE
*****
 48 52 0 0 0
SMALL
GASTEIGER

@<TRIPOS>ATOM
      1 N          61.8691   89.2421   11.8425 N.3     1  UNL1       -0.2648
      2 C          62.3862   89.7481   13.1565 C.3     1  UNL1        0.0926
      3 C          63.8591   89.9508   13.3550 C.3     1  UNL1        0.0950
      4 N          64.5332   91.1628   12.7833 N.am    1  UNL1       -0.2706
      5 C          65.1839   92.1597   13.6959 C.2     1  UNL1        0.4020
      6 O          65.1606   91.9445   15.1802 O.2     1  UNL1       -0.2264
      7 H          64.5485   91.3040   11.8091 H       1  UNL1        0.1527
      8 O          65.8579   93.3716   13.1242 O.3     1  UNL1       -0.4274
      9 C          65.6839   93.7124   11.6738 C.3     1  UNL1        0.2621
     10 C          66.7744   93.3973   10.6933 C.ar    1  UNL1        0.1323
     11 N          67.8000   92.3118   10.8341 N.ar    1  UNL1       -0.2374
     12 C          68.6903   92.3559    9.6277 C.ar    1  UNL1        0.1062
     13 C          68.2148   93.4686    8.7411 C.ar    1  UNL1        0.0573
     14 S          67.0308   94.1122    9.3997 S.2     1  UNL1       -0.0666
     15 C          64.6580   88.9415   14.1251 C.3     1  UNL1        0.0474
     16 C          64.0495   88.2472   15.3073 C.ar    1  UNL1       -0.0205
     17 C          64.1470   86.7558   15.4331 C.ar    1  UNL1       -0.0042
     18 C          63.5384   86.0614   16.6153 C.ar    1  UNL1       -0.0003
     19 C          62.8324   86.8586   17.6717 C.ar    1  UNL1       -0.0000
     20 C          62.7349   88.3501   17.5458 C.ar    1  UNL1       -0.0003
     21 C          63.3434   89.0444   16.3636 C.ar    1  UNL1       -0.0042
     22 C          60.6130   89.8180   11.2589 C.3     1  UNL1        0.1181
     23 C          60.0914   89.3061    9.9490 C.ar    1  UNL1        0.0706
     24 C          59.0785   88.2145    9.7694 C.ar    1  UNL1        0.1145
     25 N          58.8521   88.0297    8.2982 N.ar    1  UNL1       -0.2228
     26 C          59.7251   89.0072    7.5684 C.ar    1  UNL1        0.1748
     27 N          60.4910   89.7961    8.5888 N.ar    1  UNL1       -0.3371
     28 H          61.1417   90.5101    8.3990 H       1  UNL1        0.1672
     29 C          62.6081   88.1602   11.1123 C.3     1  UNL1        0.0926
     30 C          62.3894   86.7226   11.4803 C.3     1  UNL1        0.0950
     31 O          63.3197   83.8769   11.2882 O.2     1  UNL1       -0.2264
     32 C          63.6325   84.6873   12.5110 C.2     1  UNL1        0.4020
     33 N          63.1674   86.1102   12.6071 N.am    1  UNL1       -0.2706
     34 H          63.3728   86.6421   13.4096 H       1  UNL1        0.1527
     35 O          64.4106   84.0749   13.6379 O.3     1  UNL1       -0.4291
     36 C          63.7158   83.2052   14.6433 C.3     1  UNL1        0.2447
     37 C          62.9222   82.0172   14.1862 C.ar    1  UNL1        0.0714
     38 C          61.4540   81.8009   14.4040 C.ar    1  UNL1        0.1053
     39 N          61.0819   80.4870   13.7835 N.ar    1  UNL1       -0.2350
     40 C          62.3203   79.8912   13.1821 C.ar    1  UNL1        0.1343
     41 S          63.4576   80.8370   13.4310 S.2     1  UNL1       -0.0652
     42 C          61.3928   85.8974   10.7215 C.3     1  UNL1        0.0474
     43 C          61.6448   85.5514    9.2839 C.ar    1  UNL1       -0.0205
     44 C          60.5117   85.5577    8.3012 C.ar    1  UNL1       -0.0042
     45 C          60.7638   85.2118    6.8635 C.ar    1  UNL1       -0.0003
     46 C          62.1491   84.8595    6.4087 C.ar    1  UNL1       -0.0000
     47 C          63.2823   84.8532    7.3915 C.ar    1  UNL1       -0.0003
     48 C          63.0302   85.1992    8.8291 C.ar    1  UNL1       -0.0042
@<TRIPOS>BOND
     1    31    32    2
     2    32    33   am
     3    33    30    1
     4    30    42    1
     5    42    43    1
     6    43    44   ar
     7    44    45   ar
     8    45    46   ar
     9    46    47   ar
    10    47    48   ar
    11    30    29    1
    12    29     1    1
    13     1    22    1
    14    22    23    1
    15    23    24   ar
    16    24    25   ar
    17    25    26   ar
    18    26    27   ar
    19     1     2    1
    20     3     2    1
    21     3    15    1
    22    15    16    1
    23    16    17   ar
    24    17    18   ar
    25    18    19   ar
    26    19    20   ar
    27    20    21   ar
    28     3     4    1
    29     4     5   am
    30     5     6    2
    31     5     8    1
    32     8     9    1
    33     9    10    1
    34    10    11   ar
    35    11    12   ar
    36    12    13   ar
    37    13    14   ar
    38    32    35    1
    39    35    36    1
    40    36    37    1
    41    37    38   ar
    42    38    39   ar
    43    39    40   ar
    44    40    41   ar
    45    48    43   ar
    46    27    23   ar
    47    21    16   ar
    48    14    10   ar
    49    41    37   ar
    50    33    34    1
    51    27    28    1
    52     4     7    1
@<TRIPOS>MOLECULE
*****
 48 52 0 0 0
SMALL
GASTEIGER

@<TRIPOS>ATOM
      1 N          62.0456   90.1163   10.4634 N.3     1  UNL1       -0.2648
      2 C          62.8651   91.3725   10.4799 C.3     1  UNL1        0.0926
      3 C          63.9592   91.5410   11.4920 C.3     1  UNL1        0.0950
      4 N          63.6180   91.8158   12.9267 N.am    1  UNL1       -0.2706
      5 C          63.8257   90.7523   13.9639 C.2     1  UNL1        0.4020
      6 O          64.3745   89.4141   13.5666 O.2     1  UNL1       -0.2264
      7 H          63.2578   92.6941   13.1874 H       1  UNL1        0.1527
      8 O          63.4844   91.0271   15.3985 O.3     1  UNL1       -0.4274
      9 C          64.4360   91.8028   16.2604 C.3     1  UNL1        0.2621
     10 C          65.6632   92.4187   15.6566 C.ar    1  UNL1        0.1323
     11 N          65.7236   93.1798   14.3655 N.ar    1  UNL1       -0.2374
     12 C          67.1432   93.6132   14.1488 C.ar    1  UNL1        0.1062
     13 C          67.9602   93.1199   15.3061 C.ar    1  UNL1        0.0573
     14 S          67.0455   92.3817   16.2380 S.2     1  UNL1       -0.0666
     15 C          65.3946   91.4347   11.0696 C.3     1  UNL1        0.0474
     16 C          66.1135   92.6424   10.5456 C.ar    1  UNL1       -0.0205
     17 C          67.4380   92.4875    9.8589 C.ar    1  UNL1       -0.0042
     18 C          68.1570   93.6952    9.3349 C.ar    1  UNL1       -0.0003
     19 C          67.5515   95.0578    9.4977 C.ar    1  UNL1       -0.0000
     20 C          66.2270   95.2128   10.1845 C.ar    1  UNL1       -0.0003
     21 C          65.5080   94.0051   10.7084 C.ar    1  UNL1       -0.0042
     22 C          60.5563   90.1901   10.6263 C.3     1  UNL1        0.1181
     23 C          59.9164   89.7170   11.8978 C.ar    1  UNL1        0.0706
     24 C          58.5552   89.0995   12.0231 C.ar    1  UNL1        0.1145
     25 N          58.3230   88.7792   13.4699 N.ar    1  UNL1       -0.2228
     26 C          59.5407   89.1987   14.2389 C.ar    1  UNL1        0.1748
     27 N          60.5255   89.7783   13.2672 N.ar    1  UNL1       -0.3371
     28 H          61.4154   90.1361   13.4892 H       1  UNL1        0.1672
     29 C          62.7154   88.7862   10.2841 C.3     1  UNL1        0.0926
     30 C          62.2110   87.5859   11.0292 C.3     1  UNL1        0.0950
     31 O          62.9678   84.7490   11.6448 O.2     1  UNL1       -0.2264
     32 C          63.1670   85.8191   12.6768 C.2     1  UNL1        0.4020
     33 N          62.7886   87.2376   12.3690 N.am    1  UNL1       -0.2706
     34 H          62.9193   87.9400   13.0464 H       1  UNL1        0.1527
     35 O          63.7445   85.4709   14.0167 O.3     1  UNL1       -0.4291
     36 C          64.3487   84.1169   14.2439 C.3     1  UNL1        0.2447
     37 C          63.5040   82.8854   14.1030 C.ar    1  UNL1        0.0714
     38 C          62.1416   82.6782   14.6954 C.ar    1  UNL1        0.1053
     39 N          61.6689   81.3096   14.3034 N.ar    1  UNL1       -0.2350
     40 C          62.7392   80.6711   13.4686 C.ar    1  UNL1        0.1343
     41 S          63.8733   81.6450   13.3448 S.2     1  UNL1       -0.0652
     42 C          61.1291   86.7340   10.4344 C.3     1  UNL1        0.0474
     43 C          61.3347   86.0858    9.0975 C.ar    1  UNL1       -0.0205
     44 C          62.6788   85.5284    8.7330 C.ar    1  UNL1       -0.0042
     45 C          62.8844   84.8801    7.3959 C.ar    1  UNL1       -0.0003
     46 C          61.7459   84.7892    6.4236 C.ar    1  UNL1       -0.0000
     47 C          60.4018   85.3465    6.7881 C.ar    1  UNL1       -0.0003
     48 C          60.1962   85.9948    8.1250 C.ar    1  UNL1       -0.0042
@<TRIPOS>BOND
     1    31    32    2
     2    32    33   am
     3    33    30    1
     4    30    42    1
     5    42    43    1
     6    43    44   ar
     7    44    45   ar
     8    45    46   ar
     9    46    47   ar
    10    47    48   ar
    11    30    29    1
    12    29     1    1
    13     1    22    1
    14    22    23    1
    15    23    24   ar
    16    24    25   ar
    17    25    26   ar
    18    26    27   ar
    19     1     2    1
    20     3     2    1
    21     3    15    1
    22    15    16    1
    23    16    17   ar
    24    17    18   ar
    25    18    19   ar
    26    19    20   ar
    27    20    21   ar
    28     3     4    1
    29     4     5   am
    30     5     6    2
    31     5     8    1
    32     8     9    1
    33     9    10    1
    34    10    11   ar
    35    11    12   ar
    36    12    13   ar
    37    13    14   ar
    38    32    35    1
    39    35    36    1
    40    36    37    1
    41    37    38   ar
    42    38    39   ar
    43    39    40   ar
    44    40    41   ar
    45    48    43   ar
    46    27    23   ar
    47    21    16   ar
    48    14    10   ar
    49    41    37   ar
    50    33    34    1
    51    27    28    1
    52     4     7    1
@<TRIPOS>MOLECULE
*****
 48 52 0 0 0
SMALL
GASTEIGER

@<TRIPOS>ATOM
      1 N          62.6388   86.0565   12.1303 N.3     1  UNL1       -0.2648
      2 C          62.9371   87.5224   12.2396 C.3     1  UNL1        0.0926
      3 C          62.2774   88.4937   11.3062 C.3     1  UNL1        0.0950
      4 N          63.0998   89.5271   10.5950 N.am    1  UNL1       -0.2706
      5 C          63.3260   90.8694   11.2252 C.2     1  UNL1        0.4020
      6 O          62.7297   91.1784   12.5664 O.2     1  UNL1       -0.2264
      7 H          63.4912   89.3244    9.7147 H       1  UNL1        0.1527
      8 O          64.1484   91.9028   10.5140 O.3     1  UNL1       -0.4274
      9 C          65.4153   92.4111   11.1358 C.3     1  UNL1        0.2621
     10 C          66.1341   93.5781   10.5265 C.ar    1  UNL1        0.1323
     11 N          67.1491   93.5106    9.4242 N.ar    1  UNL1       -0.2374
     12 C          67.6064   94.9084    9.1289 C.ar    1  UNL1        0.1062
     13 C          66.8740   95.8398   10.0488 C.ar    1  UNL1        0.0573
     14 S          65.9640   95.0176   10.9125 S.2     1  UNL1       -0.0666
     15 C          60.7953   88.4316   11.0839 C.3     1  UNL1        0.0474
     16 C          60.2524   88.2196    9.7017 C.ar    1  UNL1       -0.0205
     17 C          59.8408   86.8464    9.2601 C.ar    1  UNL1       -0.0042
     18 C          59.2980   86.6344    7.8779 C.ar    1  UNL1       -0.0003
     19 C          59.1667   87.7955    6.9374 C.ar    1  UNL1       -0.0000
     20 C          59.5783   89.1686    7.3791 C.ar    1  UNL1       -0.0003
     21 C          60.1211   89.3807    8.7612 C.ar    1  UNL1       -0.0042
     22 C          62.6347   85.3901   10.7865 C.3     1  UNL1        0.1181
     23 C          63.1696   83.9966   10.6387 C.ar    1  UNL1        0.0706
     24 C          64.5434   83.6252   10.1645 C.ar    1  UNL1        0.1145
     25 N          64.6476   82.1289   10.1719 N.ar    1  UNL1       -0.2228
     26 C          63.3381   81.5754   10.6507 C.ar    1  UNL1        0.1748
     27 N          62.4248   82.7297   10.9391 N.ar    1  UNL1       -0.3371
     28 H          61.4989   82.6669   11.2680 H       1  UNL1        0.1672
     29 C          62.3446   85.2569   13.3648 C.3     1  UNL1        0.0926
     30 C          63.3706   85.1545   14.4543 C.3     1  UNL1        0.0950
     31 O          61.7230   85.9163   16.8428 O.2     1  UNL1       -0.2264
     32 C          62.9092   86.7478   16.4539 C.2     1  UNL1        0.4020
     33 N          63.7331   86.3669   15.2596 N.am    1  UNL1       -0.2706
     34 H          64.5117   86.9127   15.0044 H       1  UNL1        0.1527
     35 O          63.2717   87.9603   17.2592 O.3     1  UNL1       -0.4291
     36 C          62.8639   89.3241   16.7864 C.3     1  UNL1        0.2447
     37 C          63.8381   90.1782   16.0304 C.ar    1  UNL1        0.0714
     38 C          64.1857   91.6042   16.3400 C.ar    1  UNL1        0.1053
     39 N          65.1982   92.0636   15.3331 N.ar    1  UNL1       -0.2350
     40 C          65.4763   90.9214   14.4012 C.ar    1  UNL1        0.1343
     41 S          64.6357   89.7563   14.8322 S.2     1  UNL1       -0.0652
     42 C          64.0342   83.8396   14.7383 C.3     1  UNL1        0.0474
     43 C          63.3285   82.5571   14.4110 C.ar    1  UNL1       -0.0205
     44 C          64.1168   81.3563   13.9790 C.ar    1  UNL1       -0.0042
     45 C          63.4110   80.0738   13.6516 C.ar    1  UNL1       -0.0003
     46 C          61.9169   79.9922   13.7562 C.ar    1  UNL1       -0.0000
     47 C          61.1285   81.1930   14.1881 C.ar    1  UNL1       -0.0003
     48 C          61.8343   82.4754   14.5155 C.ar    1  UNL1       -0.0042
@<TRIPOS>BOND
     1    31    32    2
     2    32    33   am
     3    33    30    1
     4    30    42    1
     5    42    43    1
     6    43    44   ar
     7    44    45   ar
     8    45    46   ar
     9    46    47   ar
    10    47    48   ar
    11    30    29    1
    12    29     1    1
    13     1    22    1
    14    22    23    1
    15    23    24   ar
    16    24    25   ar
    17    25    26   ar
    18    26    27   ar
    19     1     2    1
    20     3     2    1
    21     3    15    1
    22    15    16    1
    23    16    17   ar
    24    17    18   ar
    25    18    19   ar
    26    19    20   ar
    27    20    21   ar
    28     3     4    1
    29     4     5   am
    30     5     6    2
    31     5     8    1
    32     8     9    1
    33     9    10    1
    34    10    11   ar
    35    11    12   ar
    36    12    13   ar
    37    13    14   ar
    38    32    35    1
    39    35    36    1
    40    36    37    1
    41    37    38   ar
    42    38    39   ar
    43    39    40   ar
    44    40    41   ar
    45    48    43   ar
    46    27    23   ar
    47    21    16   ar
    48    14    10   ar
    49    41    37   ar
    50    33    34    1
    51    27    28    1
    52     4     7    1
@<TRIPOS>MOLECULE
*****
 48 52 0 0 0
SMALL
GASTEIGER

@<TRIPOS>ATOM
      1 N          63.6466   88.4384   13.5601 N.3     1  UNL1       -0.2648
      2 C          63.2922   87.8180   12.2413 C.3     1  UNL1        0.0926
      3 C          62.8324   86.3914   12.1829 C.3     1  UNL1        0.0950
      4 N          63.6324   85.3173   12.8586 N.am    1  UNL1       -0.2706
      5 C          63.0047   84.4770   13.9308 C.2     1  UNL1        0.4020
      6 O          61.5771   84.7106   14.3274 O.2     1  UNL1       -0.2264
      7 H          64.5694   85.1640   12.5983 H       1  UNL1        0.1527
      8 O          63.8047   83.4030   14.6065 O.3     1  UNL1       -0.4274
      9 C          63.7755   82.0001   14.0761 C.3     1  UNL1        0.2621
     10 C          63.7003   81.7586   12.5976 C.ar    1  UNL1        0.1323
     11 N          64.4582   82.5081   11.5423 N.ar    1  UNL1       -0.2374
     12 C          64.0804   81.9380   10.2073 C.ar    1  UNL1        0.1062
     13 C          63.0889   80.8361   10.4376 C.ar    1  UNL1        0.0573
     14 S          62.8541   80.7253   11.9149 S.2     1  UNL1       -0.0666
     15 C          61.5727   86.0388   11.4488 C.3     1  UNL1        0.0474
     16 C          61.6072   85.8104    9.9667 C.ar    1  UNL1       -0.0205
     17 C          60.4556   86.2515    9.1129 C.ar    1  UNL1       -0.0042
     18 C          60.4902   86.0230    7.6308 C.ar    1  UNL1       -0.0003
     19 C          61.6763   85.3534    7.0026 C.ar    1  UNL1       -0.0000
     20 C          62.8279   84.9123    7.8564 C.ar    1  UNL1       -0.0003
     21 C          62.7934   85.1408    9.3385 C.ar    1  UNL1       -0.0042
     22 C          64.3839   87.6371   14.5919 C.3     1  UNL1        0.1181
     23 C          63.7454   87.3550   15.9195 C.ar    1  UNL1        0.0706
     24 C          63.6526   86.0145   16.5861 C.ar    1  UNL1        0.1145
     25 N          62.9374   86.1949   17.8922 N.ar    1  UNL1       -0.2228
     26 C          62.5882   87.6469   18.0329 C.ar    1  UNL1        0.1748
     27 N          63.0876   88.3639   16.8136 N.ar    1  UNL1       -0.3371
     28 H          62.9991   89.3275   16.6321 H       1  UNL1        0.1672
     29 C          63.2638   89.8600   13.8473 C.3     1  UNL1        0.0926
     30 C          64.3178   90.9264   13.8906 C.3     1  UNL1        0.0950
     31 O          62.4723   90.9419   11.5254 O.2     1  UNL1       -0.2264
     32 C          63.7952   91.6446   11.4490 C.2     1  UNL1        0.4020
     33 N          64.7180   91.6369   12.6316 N.am    1  UNL1       -0.2706
     34 H          65.5863   92.0982   12.5814 H       1  UNL1        0.1527
     35 O          64.1955   92.3552   10.1900 O.3     1  UNL1       -0.4291
     36 C          65.0658   93.5748   10.2614 C.3     1  UNL1        0.2447
     37 C          66.5339   93.4664    9.9739 C.ar    1  UNL1        0.0714
     38 C          67.4152   94.5659    9.4596 C.ar    1  UNL1        0.1053
     39 N          68.8046   94.0185    9.3181 N.ar    1  UNL1       -0.2350
     40 C          68.7819   92.5807    9.7449 C.ar    1  UNL1        0.1343
     41 S          67.3786   92.2395   10.1503 S.2     1  UNL1       -0.0652
     42 C          64.9716   91.2824   15.1928 C.3     1  UNL1        0.0474
     43 C          66.3533   91.8660   15.2036 C.ar    1  UNL1       -0.0205
     44 C          66.7621   92.8055   16.2991 C.ar    1  UNL1       -0.0042
     45 C          68.1439   93.3892   16.3098 C.ar    1  UNL1       -0.0003
     46 C          69.1168   93.0334   15.2249 C.ar    1  UNL1       -0.0000
     47 C          68.7079   92.0939   14.1294 C.ar    1  UNL1       -0.0003
     48 C          67.3262   91.5103   14.1187 C.ar    1  UNL1       -0.0042
@<TRIPOS>BOND
     1    31    32    2
     2    32    33   am
     3    33    30    1
     4    30    42    1
     5    42    43    1
     6    43    44   ar
     7    44    45   ar
     8    45    46   ar
     9    46    47   ar
    10    47    48   ar
    11    30    29    1
    12    29     1    1
    13     1    22    1
    14    22    23    1
    15    23    24   ar
    16    24    25   ar
    17    25    26   ar
    18    26    27   ar
    19     1     2    1
    20     3     2    1
    21     3    15    1
    22    15    16    1
    23    16    17   ar
    24    17    18   ar
    25    18    19   ar
    26    19    20   ar
    27    20    21   ar
    28     3     4    1
    29     4     5   am
    30     5     6    2
    31     5     8    1
    32     8     9    1
    33     9    10    1
    34    10    11   ar
    35    11    12   ar
    36    12    13   ar
    37    13    14   ar
    38    32    35    1
    39    35    36    1
    40    36    37    1
    41    37    38   ar
    42    38    39   ar
    43    39    40   ar
    44    40    41   ar
    45    48    43   ar
    46    27    23   ar
    47    21    16   ar
    48    14    10   ar
    49    41    37   ar
    50    33    34    1
    51    27    28    1
    52     4     7    1
@<TRIPOS>MOLECULE
*****
 48 52 0 0 0
SMALL
GASTEIGER

@<TRIPOS>ATOM
      1 N          62.4936   90.2798   11.0957 N.3     1  UNL1       -0.2648
      2 C          63.6874   91.1850   11.1682 C.3     1  UNL1        0.0926
      3 C          64.3067   91.5046   12.4965 C.3     1  UNL1        0.0950
      4 N          63.5143   91.3216   13.7570 N.am    1  UNL1       -0.2706
      5 C          63.5007   89.9902   14.4476 C.2     1  UNL1        0.4020
      6 O          64.2794   88.8417   13.8779 O.2     1  UNL1       -0.2264
      7 H          63.0032   92.0754   14.1309 H       1  UNL1        0.1527
      8 O          62.7083   89.8072   15.7080 O.3     1  UNL1       -0.4274
      9 C          63.2157   88.8976   16.7875 C.3     1  UNL1        0.2621
     10 C          63.1652   87.4102   16.6001 C.ar    1  UNL1        0.1323
     11 N          63.8597   86.6335   15.5211 N.ar    1  UNL1       -0.2374
     12 C          63.5351   85.1816   15.7129 C.ar    1  UNL1        0.1062
     13 C          62.6399   85.0611   16.9106 C.ar    1  UNL1        0.0573
     14 S          62.4113   86.4384   17.4588 S.2     1  UNL1       -0.0666
     15 C          65.7183   92.0072   12.5644 C.3     1  UNL1        0.0474
     16 C          66.2732   92.8382   11.4456 C.ar    1  UNL1       -0.0205
     17 C          65.8239   94.2588   11.2724 C.ar    1  UNL1       -0.0042
     18 C          66.3788   95.0898   10.1537 C.ar    1  UNL1       -0.0003
     19 C          67.3829   94.5002    9.2082 C.ar    1  UNL1       -0.0000
     20 C          67.8322   93.0797    9.3814 C.ar    1  UNL1       -0.0003
     21 C          67.2773   92.2486   10.5001 C.ar    1  UNL1       -0.0042
     22 C          61.1149   90.8401   11.2838 C.3     1  UNL1        0.1181
     23 C          60.1168   90.1079   12.1308 C.ar    1  UNL1        0.0706
     24 C          58.7401   89.6890   11.7077 C.ar    1  UNL1        0.1145
     25 N          58.0926   88.9881   12.8651 N.ar    1  UNL1       -0.2228
     26 C          59.0692   88.9739   14.0036 C.ar    1  UNL1        0.1748
     27 N          60.3202   89.6659   13.5497 N.ar    1  UNL1       -0.3371
     28 H          61.1322   89.8056   14.0886 H       1  UNL1        0.1672
     29 C          62.6784   88.8143   10.8351 C.3     1  UNL1        0.0926
     30 C          61.6094   88.0382   10.1244 C.3     1  UNL1        0.0950
     31 O          59.1452   86.7500    8.9983 O.2     1  UNL1       -0.2264
     32 C          59.7274   87.9627    8.3349 C.2     1  UNL1        0.4020
     33 N          60.9596   88.6068    8.8979 N.am    1  UNL1       -0.2706
     34 H          61.3417   89.4028    8.4625 H       1  UNL1        0.1527
     35 O          59.0776   88.5314    7.1083 O.3     1  UNL1       -0.4291
     36 C          59.8068   89.5418    6.2733 C.3     1  UNL1        0.2447
     37 C          59.0404   90.6031    5.5410 C.ar    1  UNL1        0.0714
     38 C          57.5565   90.8154    5.5957 C.ar    1  UNL1        0.1053
     39 N          57.2223   91.9819    4.7139 N.ar    1  UNL1       -0.2350
     40 C          58.4997   92.4904    4.1141 C.ar    1  UNL1        0.1343
     41 S          59.6233   91.6383    4.6253 S.2     1  UNL1       -0.0652
     42 C          61.1903   86.6935   10.6403 C.3     1  UNL1        0.0474
     43 C          62.1595   85.5488   10.6245 C.ar    1  UNL1       -0.0205
     44 C          62.8028   85.1283    9.3363 C.ar    1  UNL1       -0.0042
     45 C          63.7720   83.9835    9.3206 C.ar    1  UNL1       -0.0003
     46 C          64.0979   83.2593   10.5931 C.ar    1  UNL1       -0.0000
     47 C          63.4547   83.6797   11.8813 C.ar    1  UNL1       -0.0003
     48 C          62.4855   84.8244   11.8970 C.ar    1  UNL1       -0.0042
@<TRIPOS>BOND
     1    31    32    2
     2    32    33   am
     3    33    30    1
     4    30    42    1
     5    42    43    1
     6    43    44   ar
     7    44    45   ar
     8    45    46   ar
     9    46    47   ar
    10    47    48   ar
    11    30    29    1
    12    29     1    1
    13     1    22    1
    14    22    23    1
    15    23    24   ar
    16    24    25   ar
    17    25    26   ar
    18    26    27   ar
    19     1     2    1
    20     3     2    1
    21     3    15    1
    22    15    16    1
    23    16    17   ar
    24    17    18   ar
    25    18    19   ar
    26    19    20   ar
    27    20    21   ar
    28     3     4    1
    29     4     5   am
    30     5     6    2
    31     5     8    1
    32     8     9    1
    33     9    10    1
    34    10    11   ar
    35    11    12   ar
    36    12    13   ar
    37    13    14   ar
    38    32    35    1
    39    35    36    1
    40    36    37    1
    41    37    38   ar
    42    38    39   ar
    43    39    40   ar
    44    40    41   ar
    45    48    43   ar
    46    27    23   ar
    47    21    16   ar
    48    14    10   ar
    49    41    37   ar
    50    33    34    1
    51    27    28    1
    52     4     7    1
