@<TRIPOS>MOLECULE
*****
 18 19 0 0 0
SMALL
GASTEIGER

@<TRIPOS>ATOM
      1 C          61.8325   88.9655   11.3683 C.ar    1  UNL1        0.2250
      2 C          62.0876   89.9044   10.2267 C.ar    1  UNL1        0.0592
      3 C          63.1158   90.9882   10.3624 C.ar    1  UNL1        0.0239
      4 C          63.8889   91.1329   11.6397 C.ar    1  UNL1        0.0849
      5 C          63.6337   90.1939   12.7812 C.ar    1  UNL1        0.1195
      6 N          62.6055   89.1102   12.6455 N.ar    1  UNL1       -0.2086
      7 N          64.9171   92.2166   11.7753 N.ar    1  UNL1       -0.2849
      8 C          65.3665   93.1467   10.6878 C.ar    1  UNL1        0.1023
      9 C          66.4036   94.0654   11.2627 C.ar    1  UNL1        0.1196
     10 N          66.5950   93.7031   12.7056 N.ar    1  UNL1       -0.2220
     11 C          65.6763   92.5605   13.0224 C.ar    1  UNL1        0.1829
     12 O          60.8043   87.8818   11.2326 O.3     1  UNL1       -0.4602
     13 C          61.2343   86.4483   11.1325 C.3     1  UNL1        0.2071
     14 C          61.9835   85.9727    9.9232 C.3     1  UNL1        0.0474
     15 C          61.5566   86.4145    8.5547 C.3     1  UNL1        0.0038
     16 C          60.1960   86.0496    8.0392 C.3     1  UNL1        0.0001
     17 C          59.5806   88.5654    7.8341 C.3     1  UNL1        0.0000
     18 C          59.1775   87.1213    7.7865 C.3     1  UNL1        0.0000
@<TRIPOS>BOND
     1    17    18    1
     2    18    16    1
     3    16    15    1
     4    15    14    1
     5    14    13    1
     6    13    12    1
     7    12     1    1
     8     1     2   ar
     9     2     3   ar
    10     3     4   ar
    11     4     7    1
    12     7     8   ar
    13     8     9   ar
    14     9    10   ar
    15    10    11   ar
    16     4     5   ar
    17     5     6   ar
    18     6     1   ar
    19    11     7   ar
@<TRIPOS>MOLECULE
*****
 18 19 0 0 0
SMALL
GASTEIGER

@<TRIPOS>ATOM
      1 C          61.7489   89.1505   11.4742 C.ar    1  UNL1        0.2250
      2 C          62.1160   89.9502   10.2595 C.ar    1  UNL1        0.0592
      3 C          63.1842   90.9996   10.3471 C.ar    1  UNL1        0.0239
      4 C          63.8852   91.2493   11.6495 C.ar    1  UNL1        0.0849
      5 C          63.5181   90.4496   12.8642 C.ar    1  UNL1        0.1195
      6 N          62.4499   89.4001   12.7765 N.ar    1  UNL1       -0.2086
      7 N          64.9534   92.2988   11.7371 N.ar    1  UNL1       -0.2849
      8 C          65.4094   93.1883   10.6187 C.ar    1  UNL1        0.1023
      9 C          66.4910   94.0822   11.1489 C.ar    1  UNL1        0.1196
     10 N          66.7034   93.7452   12.5950 N.ar    1  UNL1       -0.2220
     11 C          65.7531   92.6430   12.9585 C.ar    1  UNL1        0.1829
     12 O          60.6807   88.1010   11.3866 O.3     1  UNL1       -0.4602
     13 C          61.0399   86.6952   11.0065 C.3     1  UNL1        0.2071
     14 C          61.1502   86.3142    9.5599 C.3     1  UNL1        0.0474
     15 C          62.5008   86.1603    8.9257 C.3     1  UNL1        0.0038
     16 C          63.1758   84.8208    8.9144 C.3     1  UNL1        0.0001
     17 C          64.3397   82.9187   10.2476 C.3     1  UNL1        0.0000
     18 C          63.3876   84.0768   10.1995 C.3     1  UNL1        0.0000
@<TRIPOS>BOND
     1    17    18    1
     2    18    16    1
     3    16    15    1
     4    15    14    1
     5    14    13    1
     6    13    12    1
     7    12     1    1
     8     1     2   ar
     9     2     3   ar
    10     3     4   ar
    11     4     7    1
    12     7     8   ar
    13     8     9   ar
    14     9    10   ar
    15    10    11   ar
    16     4     5   ar
    17     5     6   ar
    18     6     1   ar
    19    11     7   ar
@<TRIPOS>MOLECULE
*****
 18 19 0 0 0
SMALL
GASTEIGER

@<TRIPOS>ATOM
      1 C          62.4770   90.0611   12.8105 C.ar    1  UNL1        0.2250
      2 C          63.3737   90.8364   11.8913 C.ar    1  UNL1        0.0592
      3 C          64.6245   91.4711   12.4229 C.ar    1  UNL1        0.0239
      4 C          64.9787   91.3305   13.8737 C.ar    1  UNL1        0.0849
      5 C          64.0821   90.5552   14.7928 C.ar    1  UNL1        0.1195
      6 N          62.8312   89.9205   14.2613 N.ar    1  UNL1       -0.2086
      7 N          66.2295   91.9652   14.4053 N.ar    1  UNL1       -0.2849
      8 C          66.3600   92.7040   15.7042 C.ar    1  UNL1        0.1023
      9 C          67.7806   93.1679   15.8330 C.ar    1  UNL1        0.1196
     10 N          68.5282   92.7159   14.6136 N.ar    1  UNL1       -0.2220
     11 C          67.5696   91.9725   13.7313 C.ar    1  UNL1        0.1829
     12 O          61.2262   89.4265   12.2789 O.3     1  UNL1       -0.4602
     13 C          61.2419   88.7398   10.9455 C.3     1  UNL1        0.2071
     14 C          60.5075   87.4451   10.7599 C.3     1  UNL1        0.0474
     15 C          61.0444   86.4063    9.8203 C.3     1  UNL1        0.0038
     16 C          60.4880   86.2915    8.4320 C.3     1  UNL1        0.0001
     17 C          59.2665   88.3656    7.4544 C.3     1  UNL1        0.0000
     18 C          59.2157   87.0000    8.0730 C.3     1  UNL1        0.0000
@<TRIPOS>BOND
     1    17    18    1
     2    18    16    1
     3    16    15    1
     4    15    14    1
     5    14    13    1
     6    13    12    1
     7    12     1    1
     8     1     2   ar
     9     2     3   ar
    10     3     4   ar
    11     4     7    1
    12     7     8   ar
    13     8     9   ar
    14     9    10   ar
    15    10    11   ar
    16     4     5   ar
    17     5     6   ar
    18     6     1   ar
    19    11     7   ar
@<TRIPOS>MOLECULE
*****
 18 19 0 0 0
SMALL
GASTEIGER

@<TRIPOS>ATOM
      1 C          63.0686   89.6722   12.6477 C.ar    1  UNL1        0.2250
      2 C          63.7713   89.1447   13.8634 C.ar    1  UNL1        0.0592
      3 C          64.9236   89.9035   14.4520 C.ar    1  UNL1        0.0239
      4 C          65.3732   91.1897   13.8249 C.ar    1  UNL1        0.0849
      5 C          64.6706   91.7172   12.6092 C.ar    1  UNL1        0.1195
      6 N          63.5183   90.9584   12.0205 N.ar    1  UNL1       -0.2086
      7 N          66.5255   91.9485   14.4135 N.ar    1  UNL1       -0.2849
      8 C          66.4904   92.7734   15.6658 C.ar    1  UNL1        0.1023
      9 C          67.8584   93.3503   15.8795 C.ar    1  UNL1        0.1196
     10 N          68.7390   92.8821   14.7591 N.ar    1  UNL1       -0.2220
     11 C          67.9153   92.0157   13.8531 C.ar    1  UNL1        0.1829
     12 O          61.9163   88.9134   12.0590 O.3     1  UNL1       -0.4602
     13 C          62.1419   87.9854   10.9023 C.3     1  UNL1        0.2071
     14 C          61.8095   86.5286   11.0336 C.3     1  UNL1        0.0474
     15 C          62.6060   85.6580   11.9597 C.3     1  UNL1        0.0038
     16 C          62.7535   84.1935   11.6709 C.3     1  UNL1        0.0001
     17 C          63.9329   82.2813   10.3661 C.3     1  UNL1        0.0000
     18 C          63.6096   83.7372   10.5269 C.3     1  UNL1        0.0000
@<TRIPOS>BOND
     1    17    18    1
     2    18    16    1
     3    16    15    1
     4    15    14    1
     5    14    13    1
     6    13    12    1
     7    12     1    1
     8     1     2   ar
     9     2     3   ar
    10     3     4   ar
    11     4     7    1
    12     7     8   ar
    13     8     9   ar
    14     9    10   ar
    15    10    11   ar
    16     4     5   ar
    17     5     6   ar
    18     6     1   ar
    19    11     7   ar
@<TRIPOS>MOLECULE
*****
 18 19 0 0 0
SMALL
GASTEIGER

@<TRIPOS>ATOM
      1 C          65.2838   92.6166   11.9880 C.ar    1  UNL1        0.2250
      2 C          64.7256   92.3144   10.6289 C.ar    1  UNL1        0.0592
      3 C          63.6305   91.3007   10.4764 C.ar    1  UNL1        0.0239
      4 C          63.0938   90.5892   11.6828 C.ar    1  UNL1        0.0849
      5 C          63.6521   90.8913   13.0418 C.ar    1  UNL1        0.1195
      6 N          64.7471   91.9051   13.1944 N.ar    1  UNL1       -0.2086
      7 N          61.9988   89.5754   11.5303 N.ar    1  UNL1       -0.2849
      8 C          62.1326   88.2211   10.8994 C.ar    1  UNL1        0.1023
      9 C          60.7942   87.5467   10.9610 C.ar    1  UNL1        0.1196
     10 N          59.8332   88.4842   11.6300 N.ar    1  UNL1       -0.2220
     11 C          60.5776   89.7380   11.9818 C.ar    1  UNL1        0.1829
     12 O          66.3789   93.6304   12.1405 O.3     1  UNL1       -0.4602
     13 C          66.1342   95.0612   11.7628 C.3     1  UNL1        0.2071
     14 C          66.2931   95.4981   10.3366 C.3     1  UNL1        0.0474
     15 C          67.5363   95.1411    9.5769 C.3     1  UNL1        0.0038
     16 C          67.5266   93.9819    8.6250 C.3     1  UNL1        0.0001
     17 C          68.3448   91.9264    9.9871 C.3     1  UNL1        0.0000
     18 C          68.4912   92.8487    8.8133 C.3     1  UNL1        0.0000
@<TRIPOS>BOND
     1    17    18    1
     2    18    16    1
     3    16    15    1
     4    15    14    1
     5    14    13    1
     6    13    12    1
     7    12     1    1
     8     1     2   ar
     9     2     3   ar
    10     3     4   ar
    11     4     7    1
    12     7     8   ar
    13     8     9   ar
    14     9    10   ar
    15    10    11   ar
    16     4     5   ar
    17     5     6   ar
    18     6     1   ar
    19    11     7   ar
@<TRIPOS>MOLECULE
*****
 18 19 0 0 0
SMALL
GASTEIGER

@<TRIPOS>ATOM
      1 C          63.0244   90.0262   12.3683 C.ar    1  UNL1        0.2250
      2 C          63.5422   89.5022   13.6750 C.ar    1  UNL1        0.0592
      3 C          64.7136   90.1647   14.3375 C.ar    1  UNL1        0.0239
      4 C          65.3672   91.3512   13.6934 C.ar    1  UNL1        0.0849
      5 C          64.8495   91.8752   12.3867 C.ar    1  UNL1        0.1195
      6 N          63.6781   91.2127   11.7242 N.ar    1  UNL1       -0.2086
      7 N          66.5386   92.0137   14.3559 N.ar    1  UNL1       -0.2849
      8 C          66.5199   92.7197   15.6792 C.ar    1  UNL1        0.1023
      9 C          67.9041   93.2288   15.9526 C.ar    1  UNL1        0.1196
     10 N          68.7783   92.8375   14.7982 N.ar    1  UNL1       -0.2220
     11 C          67.9344   92.0865   13.8114 C.ar    1  UNL1        0.1829
     12 O          61.8530   89.3637   11.7058 O.3     1  UNL1       -0.4602
     13 C          61.9808   87.9643   11.1811 C.3     1  UNL1        0.2071
     14 C          62.1936   87.7296    9.7149 C.3     1  UNL1        0.0474
     15 C          61.8485   86.4008    9.1103 C.3     1  UNL1        0.0038
     16 C          62.9339   85.5200    8.5661 C.3     1  UNL1        0.0001
     17 C          61.4025   84.8516    6.5766 C.3     1  UNL1        0.0000
     18 C          62.7341   84.8002    7.2654 C.3     1  UNL1        0.0000
@<TRIPOS>BOND
     1    17    18    1
     2    18    16    1
     3    16    15    1
     4    15    14    1
     5    14    13    1
     6    13    12    1
     7    12     1    1
     8     1     2   ar
     9     2     3   ar
    10     3     4   ar
    11     4     7    1
    12     7     8   ar
    13     8     9   ar
    14     9    10   ar
    15    10    11   ar
    16     4     5   ar
    17     5     6   ar
    18     6     1   ar
    19    11     7   ar
@<TRIPOS>MOLECULE
*****
 18 19 0 0 0
SMALL
GASTEIGER

@<TRIPOS>ATOM
      1 C          63.6310   90.5634   14.0836 C.ar    1  UNL1        0.2250
      2 C          63.3661   90.5750   12.6073 C.ar    1  UNL1        0.0592
      3 C          64.2050   91.4269   11.7014 C.ar    1  UNL1        0.0239
      4 C          65.3087   92.2672   12.2720 C.ar    1  UNL1        0.0849
      5 C          65.5736   92.2556   13.7483 C.ar    1  UNL1        0.1195
      6 N          64.7347   91.4037   14.6541 N.ar    1  UNL1       -0.2086
      7 N          66.1476   93.1192   11.3662 N.ar    1  UNL1       -0.2849
      8 C          67.0156   92.6264   10.2465 C.ar    1  UNL1        0.1023
      9 C          67.6702   93.8161    9.6093 C.ar    1  UNL1        0.1196
     10 N          67.2067   95.0443   10.3352 N.ar    1  UNL1       -0.2220
     11 C          66.2657   94.6135   11.4209 C.ar    1  UNL1        0.1829
     12 O          62.7921   89.7114   14.9894 O.3     1  UNL1       -0.4602
     13 C          63.1668   89.5575   16.4336 C.3     1  UNL1        0.2071
     14 C          63.1487   88.2005   17.0727 C.3     1  UNL1        0.0474
     15 C          63.2418   86.9692   16.2210 C.3     1  UNL1        0.0038
     16 C          64.4041   86.7869   15.2906 C.3     1  UNL1        0.0001
     17 C          63.3654   84.7402   14.0732 C.3     1  UNL1        0.0000
     18 C          64.5720   85.4968   14.5440 C.3     1  UNL1        0.0000
@<TRIPOS>BOND
     1    17    18    1
     2    18    16    1
     3    16    15    1
     4    15    14    1
     5    14    13    1
     6    13    12    1
     7    12     1    1
     8     1     2   ar
     9     2     3   ar
    10     3     4   ar
    11     4     7    1
    12     7     8   ar
    13     8     9   ar
    14     9    10   ar
    15    10    11   ar
    16     4     5   ar
    17     5     6   ar
    18     6     1   ar
    19    11     7   ar
@<TRIPOS>MOLECULE
*****
 18 19 0 0 0
SMALL
GASTEIGER

@<TRIPOS>ATOM
      1 C          63.3664   84.3849   11.4768 C.ar    1  UNL1        0.2250
      2 C          63.4881   84.3988    9.9819 C.ar    1  UNL1        0.0592
      3 C          62.6081   85.2988    9.1661 C.ar    1  UNL1        0.0239
      4 C          61.6065   86.1850    9.8452 C.ar    1  UNL1        0.0849
      5 C          61.4848   86.1712   11.3402 C.ar    1  UNL1        0.1195
      6 N          62.3648   85.2711   12.1560 N.ar    1  UNL1       -0.2086
      7 N          60.7265   87.0851    9.0294 N.ar    1  UNL1       -0.2849
      8 C          59.6962   86.6437    8.0327 C.ar    1  UNL1        0.1023
      9 C          59.0552   87.8704    7.4544 C.ar    1  UNL1        0.1196
     10 N          59.6895   89.0700    8.0937 N.ar    1  UNL1       -0.2220
     11 C          60.7224   88.5846    9.0671 C.ar    1  UNL1        0.1829
     12 O          64.2464   83.4848   12.2926 O.3     1  UNL1       -0.4602
     13 C          64.3681   83.6954   13.7727 C.3     1  UNL1        0.2071
     14 C          63.5257   82.8897   14.7167 C.3     1  UNL1        0.0474
     15 C          62.0985   82.5822   14.3723 C.3     1  UNL1        0.0038
     16 C          61.6430   81.1570   14.2659 C.3     1  UNL1        0.0001
     17 C          62.7370   80.6132   11.9730 C.3     1  UNL1        0.0000
     18 C          62.3722   80.2016   13.3685 C.3     1  UNL1        0.0000
@<TRIPOS>BOND
     1    17    18    1
     2    18    16    1
     3    16    15    1
     4    15    14    1
     5    14    13    1
     6    13    12    1
     7    12     1    1
     8     1     2   ar
     9     2     3   ar
    10     3     4   ar
    11     4     7    1
    12     7     8   ar
    13     8     9   ar
    14     9    10   ar
    15    10    11   ar
    16     4     5   ar
    17     5     6   ar
    18     6     1   ar
    19    11     7   ar
@<TRIPOS>MOLECULE
*****
 18 19 0 0 0
SMALL
GASTEIGER

@<TRIPOS>ATOM
      1 C          63.3996   83.8963   10.8531 C.ar    1  UNL1        0.2250
      2 C          63.5679   84.2283    9.4001 C.ar    1  UNL1        0.0592
      3 C          62.7477   85.3206    8.7803 C.ar    1  UNL1        0.0239
      4 C          61.7590   86.0809    9.6137 C.ar    1  UNL1        0.0849
      5 C          61.5907   85.7489   11.0667 C.ar    1  UNL1        0.1195
      6 N          62.4110   84.6567   11.6865 N.ar    1  UNL1       -0.2086
      7 N          60.9387   87.1731    8.9939 N.ar    1  UNL1       -0.2849
      8 C          59.9474   87.0077    7.8804 C.ar    1  UNL1        0.1023
      9 C          59.3617   88.3549    7.5772 C.ar    1  UNL1        0.1196
     10 N          59.9911   89.3530    8.5033 N.ar    1  UNL1       -0.2220
     11 C          60.9657   88.6226    9.3789 C.ar    1  UNL1        0.1829
     12 O          64.2199   82.8041   11.4729 O.3     1  UNL1       -0.4602
     13 C          63.5456   81.6900   12.2173 C.3     1  UNL1        0.2071
     14 C          63.5851   81.6580   13.7164 C.3     1  UNL1        0.0474
     15 C          62.6528   82.5247   14.5100 C.3     1  UNL1        0.0038
     16 C          63.1774   83.7384   15.2183 C.3     1  UNL1        0.0001
     17 C          64.6121   85.8936   15.0020 C.3     1  UNL1        0.0000
     18 C          64.3981   84.4398   14.7007 C.3     1  UNL1        0.0000
@<TRIPOS>BOND
     1    17    18    1
     2    18    16    1
     3    16    15    1
     4    15    14    1
     5    14    13    1
     6    13    12    1
     7    12     1    1
     8     1     2   ar
     9     2     3   ar
    10     3     4   ar
    11     4     7    1
    12     7     8   ar
    13     8     9   ar
    14     9    10   ar
    15    10    11   ar
    16     4     5   ar
    17     5     6   ar
    18     6     1   ar
    19    11     7   ar
