@<TRIPOS>MOLECULE
*****
 25 28 0 0 0
SMALL
GASTEIGER

@<TRIPOS>ATOM
      1 C          62.5204   83.7311   14.4146 C.2     1  UNL1       -0.0420
      2 C          62.9123   83.9743   12.9872 C.2     1  UNL1       -0.0240
      3 C          62.9274   82.6521   12.2789 C.ar    1  UNL1       -0.0078
      4 C          63.2401   82.2767   10.8608 C.ar    1  UNL1       -0.0006
      5 C          63.1702   80.8410   10.4322 C.ar    1  UNL1       -0.0000
      6 C          62.7876   79.7806   11.4218 C.ar    1  UNL1       -0.0003
      7 C          62.4749   80.1560   12.8400 C.ar    1  UNL1       -0.0040
      8 C          62.5448   81.5918   13.2685 C.ar    1  UNL1       -0.0184
      9 C          62.2933   82.2586   14.5884 C.3     1  UNL1        0.0480
     10 C          62.3803   84.7768   15.4808 C.3     1  UNL1        0.0394
     11 C          63.5859   85.5361   15.9497 C.3     1  UNL1        0.0766
     12 F          63.9068   90.8156   15.2671 F       1  UNL1       -0.2028
     13 C          63.9774   89.3200   15.1785 C.3     1  UNL1        0.2797
     14 F          64.7083   89.5876   13.8961 F       1  UNL1       -0.2028
     15 C          63.2319   89.3649   16.4793 C.3     1  UNL1        0.0853
     16 C          62.9945   87.9530   16.9265 C.3     1  UNL1        0.0779
     17 N          63.5933   87.0354   15.9021 N.3     1  UNL1       -0.2677
     18 C          64.2008   87.8802   14.8217 C.3     1  UNL1        0.1395
     19 C          63.2328   85.3059   12.3755 C.3     1  UNL1        0.0730
     20 C          62.3400   85.8784   11.3147 C.ar    1  UNL1        0.0825
     21 C          62.5257   85.4772    9.8814 C.ar    1  UNL1        0.1139
     22 N          61.6329   86.0497    8.8206 N.ar    1  UNL1       -0.2394
     23 C          60.5544   87.0233    9.1933 C.ar    1  UNL1        0.1195
     24 C          60.3687   87.4244   10.6267 C.ar    1  UNL1        0.1191
     25 N          61.2615   86.8520   11.6874 N.ar    1  UNL1       -0.2446
@<TRIPOS>BOND
     1    12    13    1
     2    13    14    1
     3    13    15    1
     4    15    16    1
     5    16    17    1
     6    17    11    1
     7    11    10    1
     8    10     1    1
     9     1     2    2
    10     2    19    1
    11    19    20    1
    12    20    21   ar
    13    21    22   ar
    14    22    23   ar
    15    23    24   ar
    16    24    25   ar
    17     2     3    1
    18     3     4   ar
    19     4     5   ar
    20     5     6   ar
    21     6     7   ar
    22     7     8   ar
    23     8     9    1
    24    17    18    1
    25    18    13    1
    26     9     1    1
    27    25    20   ar
    28     8     3   ar
@<TRIPOS>MOLECULE
*****
 25 28 0 0 0
SMALL
GASTEIGER

@<TRIPOS>ATOM
      1 C          64.7363   91.6418   12.6255 C.2     1  UNL1       -0.0420
      2 C          63.7057   90.8302   13.3528 C.2     1  UNL1       -0.0240
      3 C          62.6815   90.3790   12.3541 C.ar    1  UNL1       -0.0078
      4 C          61.4381   89.5519   12.4953 C.ar    1  UNL1       -0.0006
      5 C          60.5925   89.2576   11.2919 C.ar    1  UNL1       -0.0000
      6 C          60.9901   89.7904    9.9473 C.ar    1  UNL1       -0.0003
      7 C          62.2335   90.6175    9.8060 C.ar    1  UNL1       -0.0040
      8 C          63.0791   90.9118   11.0094 C.ar    1  UNL1       -0.0184
      9 C          64.3491   91.6922   11.1772 C.3     1  UNL1        0.0480
     10 C          65.9425   92.2892   13.2387 C.3     1  UNL1        0.0394
     11 C          66.4128   93.6233   12.7397 C.3     1  UNL1        0.0766
     12 F          68.3148   93.5733    7.7576 F       1  UNL1       -0.2028
     13 C          67.8854   93.2815    9.1648 C.3     1  UNL1        0.2797
     14 F          68.4656   91.9250    8.8935 F       1  UNL1       -0.2028
     15 C          67.3949   94.6988    9.1419 C.3     1  UNL1        0.0853
     16 C          66.7836   94.9994   10.4783 C.3     1  UNL1        0.0779
     17 N          66.8962   93.7678   11.3271 N.3     1  UNL1       -0.2677
     18 C          67.5772   92.7060   10.5153 C.3     1  UNL1        0.1395
     19 C          63.7002   90.5235   14.8211 C.3     1  UNL1        0.0730
     20 C          63.6833   89.0986   15.2897 C.ar    1  UNL1        0.0825
     21 C          63.0481   88.7483   16.6026 C.ar    1  UNL1        0.1139
     22 N          63.0312   87.3235   17.0712 N.ar    1  UNL1       -0.2394
     23 C          63.6495   86.2490   16.2268 C.ar    1  UNL1        0.1195
     24 C          64.2846   86.5992   14.9138 C.ar    1  UNL1        0.1191
     25 N          64.3015   88.0240   14.4452 N.ar    1  UNL1       -0.2446
@<TRIPOS>BOND
     1    12    13    1
     2    13    14    1
     3    13    15    1
     4    15    16    1
     5    16    17    1
     6    17    11    1
     7    11    10    1
     8    10     1    1
     9     1     2    2
    10     2    19    1
    11    19    20    1
    12    20    21   ar
    13    21    22   ar
    14    22    23   ar
    15    23    24   ar
    16    24    25   ar
    17     2     3    1
    18     3     4   ar
    19     4     5   ar
    20     5     6   ar
    21     6     7   ar
    22     7     8   ar
    23     8     9    1
    24    17    18    1
    25    18    13    1
    26     9     1    1
    27    25    20   ar
    28     8     3   ar
@<TRIPOS>MOLECULE
*****
 25 28 0 0 0
SMALL
GASTEIGER

@<TRIPOS>ATOM
      1 C          63.2675   90.2226   12.1162 C.2     1  UNL1       -0.0420
      2 C          63.5940   88.9006   12.7453 C.2     1  UNL1       -0.0240
      3 C          62.8969   87.8290   11.9606 C.ar    1  UNL1       -0.0078
      4 C          62.8540   86.3378   12.1167 C.ar    1  UNL1       -0.0006
      5 C          62.0537   85.5062   11.1587 C.ar    1  UNL1       -0.0000
      6 C          61.2963   86.1658   10.0446 C.ar    1  UNL1       -0.0003
      7 C          61.3392   87.6570    9.8885 C.ar    1  UNL1       -0.0040
      8 C          62.1395   88.4886   10.8466 C.ar    1  UNL1       -0.0184
      9 C          62.3685   89.9679   10.9427 C.3     1  UNL1        0.0480
     10 C          63.7543   91.5637   12.5792 C.3     1  UNL1        0.0394
     11 C          65.1665   91.9859   12.3010 C.3     1  UNL1        0.0766
     12 F          68.2118   92.4720   16.6522 F       1  UNL1       -0.2028
     13 C          67.1133   92.3997   15.6334 C.3     1  UNL1        0.2797
     14 F          66.2244   92.7137   16.8002 F       1  UNL1       -0.2028
     15 C          68.2317   92.1007   14.6796 C.3     1  UNL1        0.0853
     16 C          67.6385   91.9093   13.3152 C.3     1  UNL1        0.0779
     17 N          66.1536   92.0900   13.4257 N.3     1  UNL1       -0.2677
     18 C          65.8289   92.3931   14.8585 C.3     1  UNL1        0.1395
     19 C          64.4648   88.6877   13.9479 C.3     1  UNL1        0.0730
     20 C          63.9682   87.8604   15.0965 C.ar    1  UNL1        0.0825
     21 C          64.2509   86.3879   15.1378 C.ar    1  UNL1        0.1139
     22 N          63.7544   85.5607   16.2863 N.ar    1  UNL1       -0.2394
     23 C          62.9749   86.2061   17.3936 C.ar    1  UNL1        0.1195
     24 C          62.6922   87.6786   17.3523 C.ar    1  UNL1        0.1191
     25 N          63.1888   88.5058   16.2038 N.ar    1  UNL1       -0.2446
@<TRIPOS>BOND
     1    12    13    1
     2    13    14    1
     3    13    15    1
     4    15    16    1
     5    16    17    1
     6    17    11    1
     7    11    10    1
     8    10     1    1
     9     1     2    2
    10     2    19    1
    11    19    20    1
    12    20    21   ar
    13    21    22   ar
    14    22    23   ar
    15    23    24   ar
    16    24    25   ar
    17     2     3    1
    18     3     4   ar
    19     4     5   ar
    20     5     6   ar
    21     6     7   ar
    22     7     8   ar
    23     8     9    1
    24    17    18    1
    25    18    13    1
    26     9     1    1
    27    25    20   ar
    28     8     3   ar
@<TRIPOS>MOLECULE
*****
 25 28 0 0 0
SMALL
GASTEIGER

@<TRIPOS>ATOM
      1 C          63.7135   89.1259   13.0766 C.2     1  UNL1       -0.0420
      2 C          63.5997   87.6305   13.1053 C.2     1  UNL1       -0.0240
      3 C          62.7793   87.2053   11.9237 C.ar    1  UNL1       -0.0078
      4 C          62.3396   85.8549   11.4407 C.ar    1  UNL1       -0.0006
      5 C          61.5066   85.7373   10.1989 C.ar    1  UNL1       -0.0000
      6 C          61.1133   86.9699    9.4400 C.ar    1  UNL1       -0.0003
      7 C          61.5530   88.3202    9.9229 C.ar    1  UNL1       -0.0040
      8 C          62.3860   88.4379   11.1647 C.ar    1  UNL1       -0.0184
      9 C          62.9634   89.6249   11.8773 C.3     1  UNL1        0.0480
     10 C          64.4483   89.9734   14.0724 C.3     1  UNL1        0.0394
     11 C          65.1041   91.2487   13.6327 C.3     1  UNL1        0.0766
     12 F          69.3652   93.2472   16.1410 F       1  UNL1       -0.2028
     13 C          68.3816   92.6085   15.2060 C.3     1  UNL1        0.2797
     14 F          69.5866   92.3885   14.3401 F       1  UNL1       -0.2028
     15 C          67.3823   92.9620   16.2673 C.3     1  UNL1        0.0853
     16 C          66.0329   92.4956   15.8071 C.3     1  UNL1        0.0779
     17 N          66.1983   91.8539   14.4614 N.3     1  UNL1       -0.2677
     18 C          67.6499   91.9236   14.0899 C.3     1  UNL1        0.1395
     19 C          64.2008   86.7201   14.1348 C.3     1  UNL1        0.0730
     20 C          63.7892   85.2787   14.1933 C.ar    1  UNL1        0.0825
     21 C          64.6250   84.2321   13.5180 C.ar    1  UNL1        0.1139
     22 N          64.2135   82.7908   13.5765 N.ar    1  UNL1       -0.2394
     23 C          62.9661   82.3963   14.3103 C.ar    1  UNL1        0.1195
     24 C          62.1303   83.4429   14.9855 C.ar    1  UNL1        0.1191
     25 N          62.5418   84.8842   14.9270 N.ar    1  UNL1       -0.2446
@<TRIPOS>BOND
     1    12    13    1
     2    13    14    1
     3    13    15    1
     4    15    16    1
     5    16    17    1
     6    17    11    1
     7    11    10    1
     8    10     1    1
     9     1     2    2
    10     2    19    1
    11    19    20    1
    12    20    21   ar
    13    21    22   ar
    14    22    23   ar
    15    23    24   ar
    16    24    25   ar
    17     2     3    1
    18     3     4   ar
    19     4     5   ar
    20     5     6   ar
    21     6     7   ar
    22     7     8   ar
    23     8     9    1
    24    17    18    1
    25    18    13    1
    26     9     1    1
    27    25    20   ar
    28     8     3   ar
@<TRIPOS>MOLECULE
*****
 25 28 0 0 0
SMALL
GASTEIGER

@<TRIPOS>ATOM
      1 C          60.4247   87.5064   10.4563 C.2     1  UNL1       -0.0420
      2 C          61.7759   86.8551   10.4520 C.2     1  UNL1       -0.0240
      3 C          61.9203   86.0955    9.1666 C.ar    1  UNL1       -0.0078
      4 C          63.0378   85.2617    8.6136 C.ar    1  UNL1       -0.0006
      5 C          62.8934   84.6099    7.2704 C.ar    1  UNL1       -0.0000
      6 C          61.6314   84.7917    6.4803 C.ar    1  UNL1       -0.0003
      7 C          60.5138   85.6255    7.0333 C.ar    1  UNL1       -0.0040
      8 C          60.6583   86.2774    8.3765 C.ar    1  UNL1       -0.0184
      9 C          59.7340   87.1493    9.1735 C.3     1  UNL1        0.0480
     10 C          59.8628   88.3641   11.5511 C.3     1  UNL1        0.0394
     11 C          60.1377   89.8386   11.5645 C.3     1  UNL1        0.0766
     12 F          65.1910   91.4933   11.9754 F       1  UNL1       -0.2028
     13 C          63.8009   90.9668   12.1761 C.3     1  UNL1        0.2797
     14 F          64.2407   90.7950   13.6000 F       1  UNL1       -0.2028
     15 C          63.6517   91.2486   10.7104 C.3     1  UNL1        0.0853
     16 C          62.2614   90.8602   10.3029 C.3     1  UNL1        0.0779
     17 N          61.5512   90.3385   11.5168 N.3     1  UNL1       -0.2677
     18 C          62.5027   90.4043   12.6746 C.3     1  UNL1        0.1395
     19 C          62.8025   86.9471   11.5417 C.3     1  UNL1        0.0730
     20 C          62.9894   85.8038   12.4947 C.ar    1  UNL1        0.0825
     21 C          62.5674   84.4201   12.0979 C.ar    1  UNL1        0.1139
     22 N          62.7543   83.2768   13.0506 N.ar    1  UNL1       -0.2394
     23 C          63.3631   83.5172   14.4003 C.ar    1  UNL1        0.1195
     24 C          63.7851   84.9008   14.7971 C.ar    1  UNL1        0.1191
     25 N          63.5982   86.0441   13.8443 N.ar    1  UNL1       -0.2446
@<TRIPOS>BOND
     1    12    13    1
     2    13    14    1
     3    13    15    1
     4    15    16    1
     5    16    17    1
     6    17    11    1
     7    11    10    1
     8    10     1    1
     9     1     2    2
    10     2    19    1
    11    19    20    1
    12    20    21   ar
    13    21    22   ar
    14    22    23   ar
    15    23    24   ar
    16    24    25   ar
    17     2     3    1
    18     3     4   ar
    19     4     5   ar
    20     5     6   ar
    21     6     7   ar
    22     7     8   ar
    23     8     9    1
    24    17    18    1
    25    18    13    1
    26     9     1    1
    27    25    20   ar
    28     8     3   ar
@<TRIPOS>MOLECULE
*****
 25 28 0 0 0
SMALL
GASTEIGER

@<TRIPOS>ATOM
      1 C          63.2995   86.3093   12.9140 C.2     1  UNL1       -0.0420
      2 C          63.7035   87.6895   13.3401 C.2     1  UNL1       -0.0240
      3 C          63.1945   88.6589   12.3148 C.ar    1  UNL1       -0.0078
      4 C          63.2926   90.1519   12.2093 C.ar    1  UNL1       -0.0006
      5 C          62.6719   90.8638   11.0440 C.ar    1  UNL1       -0.0000
      6 C          61.9533   90.0826    9.9841 C.ar    1  UNL1       -0.0003
      7 C          61.8553   88.5896   10.0896 C.ar    1  UNL1       -0.0040
      8 C          62.4759   87.8777   11.2549 C.ar    1  UNL1       -0.0184
      9 C          62.5408   86.4256   11.6253 C.3     1  UNL1        0.0480
     10 C          63.6012   85.0362   13.6477 C.3     1  UNL1        0.0394
     11 C          62.4885   84.0983   14.0112 C.3     1  UNL1        0.0766
     12 F          62.6505   79.3519   11.5848 F       1  UNL1       -0.2028
     13 C          62.7056   80.7977   11.9803 C.3     1  UNL1        0.2797
     14 F          63.1607   81.0047   10.5660 F       1  UNL1       -0.2028
     15 C          62.2391   80.2885   13.3119 C.3     1  UNL1        0.0853
     16 C          62.1010   81.4630   14.2347 C.3     1  UNL1        0.0779
     17 N          62.4821   82.6980   13.4735 N.3     1  UNL1       -0.2677
     18 C          62.8559   82.2869   12.0801 C.3     1  UNL1        0.1395
     19 C          64.4802   88.0391   14.5748 C.3     1  UNL1        0.0730
     20 C          64.4733   89.4473   15.0917 C.ar    1  UNL1        0.0825
     21 C          63.3996   89.8930   16.0397 C.ar    1  UNL1        0.1139
     22 N          63.3926   91.3011   16.5565 N.ar    1  UNL1       -0.2394
     23 C          64.4592   92.2635   16.1254 C.ar    1  UNL1        0.1195
     24 C          65.5329   91.8179   15.1774 C.ar    1  UNL1        0.1191
     25 N          65.5399   90.4098   14.6605 N.ar    1  UNL1       -0.2446
@<TRIPOS>BOND
     1    12    13    1
     2    13    14    1
     3    13    15    1
     4    15    16    1
     5    16    17    1
     6    17    11    1
     7    11    10    1
     8    10     1    1
     9     1     2    2
    10     2    19    1
    11    19    20    1
    12    20    21   ar
    13    21    22   ar
    14    22    23   ar
    15    23    24   ar
    16    24    25   ar
    17     2     3    1
    18     3     4   ar
    19     4     5   ar
    20     5     6   ar
    21     6     7   ar
    22     7     8   ar
    23     8     9    1
    24    17    18    1
    25    18    13    1
    26     9     1    1
    27    25    20   ar
    28     8     3   ar
@<TRIPOS>MOLECULE
*****
 25 28 0 0 0
SMALL
GASTEIGER

@<TRIPOS>ATOM
      1 C          63.9475   86.6500   14.2249 C.2     1  UNL1       -0.0420
      2 C          63.3127   86.9800   12.9065 C.2     1  UNL1       -0.0240
      3 C          63.4572   88.4555   12.6789 C.ar    1  UNL1       -0.0078
      4 C          63.0230   89.3444   11.5514 C.ar    1  UNL1       -0.0006
      5 C          63.3129   90.8152   11.6016 C.ar    1  UNL1       -0.0000
      6 C          64.0370   91.3972   12.7793 C.ar    1  UNL1       -0.0003
      7 C          64.4712   90.5083   13.9068 C.ar    1  UNL1       -0.0040
      8 C          64.1813   89.0375   13.8566 C.ar    1  UNL1       -0.0184
      9 C          64.4843   87.9216   14.8121 C.3     1  UNL1        0.0480
     10 C          64.0308   85.2876   14.8470 C.3     1  UNL1        0.0394
     11 C          64.8561   84.2161   14.1983 C.3     1  UNL1        0.0766
     12 F          62.9671   80.9842   10.3999 F       1  UNL1       -0.2028
     13 C          63.7007   81.9909   11.2353 C.3     1  UNL1        0.2797
     14 F          64.4833   82.2304    9.9781 F       1  UNL1       -0.2028
     15 C          62.7649   81.5411   12.3178 C.3     1  UNL1        0.0853
     16 C          63.0838   82.3199   13.5594 C.3     1  UNL1        0.0779
     17 N          64.2167   83.2511   13.2444 N.3     1  UNL1       -0.2677
     18 C          64.5981   83.0478   11.8079 C.3     1  UNL1        0.1395
     19 C          62.6498   86.0055   11.9787 C.3     1  UNL1        0.0730
     20 C          61.7467   86.5029   10.8891 C.ar    1  UNL1        0.0825
     21 C          62.0133   86.1238    9.4625 C.ar    1  UNL1        0.1139
     22 N          61.1103   86.6211    8.3729 N.ar    1  UNL1       -0.2394
     23 C          59.9405   87.4975    8.7100 C.ar    1  UNL1        0.1195
     24 C          59.6738   87.8765   10.1366 C.ar    1  UNL1        0.1191
     25 N          60.5769   87.3792   11.2262 N.ar    1  UNL1       -0.2446
@<TRIPOS>BOND
     1    12    13    1
     2    13    14    1
     3    13    15    1
     4    15    16    1
     5    16    17    1
     6    17    11    1
     7    11    10    1
     8    10     1    1
     9     1     2    2
    10     2    19    1
    11    19    20    1
    12    20    21   ar
    13    21    22   ar
    14    22    23   ar
    15    23    24   ar
    16    24    25   ar
    17     2     3    1
    18     3     4   ar
    19     4     5   ar
    20     5     6   ar
    21     6     7   ar
    22     7     8   ar
    23     8     9    1
    24    17    18    1
    25    18    13    1
    26     9     1    1
    27    25    20   ar
    28     8     3   ar
@<TRIPOS>MOLECULE
*****
 25 28 0 0 0
SMALL
GASTEIGER

@<TRIPOS>ATOM
      1 C          62.2212   88.6561   11.1850 C.2     1  UNL1       -0.0420
      2 C          61.4969   87.3749   10.8951 C.2     1  UNL1       -0.0240
      3 C          60.6525   87.5859    9.6735 C.ar    1  UNL1       -0.0078
      4 C          59.7255   86.6751    8.9245 C.ar    1  UNL1       -0.0006
      5 C          59.0009   87.1758    7.7104 C.ar    1  UNL1       -0.0000
      6 C          59.2033   88.5875    7.2452 C.ar    1  UNL1       -0.0003
      7 C          60.1303   89.4983    7.9942 C.ar    1  UNL1       -0.0040
      8 C          60.8549   88.9975    9.2083 C.ar    1  UNL1       -0.0184
      9 C          61.8244   89.6589   10.1425 C.3     1  UNL1        0.0480
     10 C          63.1748   88.8929   12.3184 C.3     1  UNL1        0.0394
     11 C          63.1708   90.2081   13.0396 C.3     1  UNL1        0.0766
     12 F          67.7826   92.7214   13.9652 F       1  UNL1       -0.2028
     13 C          66.5575   91.8561   13.9778 C.3     1  UNL1        0.2797
     14 F          67.1512   91.3055   15.2405 F       1  UNL1       -0.2028
     15 C          66.2198   92.5876   12.7125 C.3     1  UNL1        0.0853
     16 C          64.9101   92.0593   12.2071 C.3     1  UNL1        0.0779
     17 N          64.4382   91.0013   13.1600 N.3     1  UNL1       -0.2677
     18 C          65.4564   90.8757   14.2544 C.3     1  UNL1        0.1395
     19 C          61.5991   86.1055   11.6877 C.3     1  UNL1        0.0730
     20 C          62.5725   85.0408   11.2765 C.ar    1  UNL1        0.0825
     21 C          62.8923   84.8370    9.8252 C.ar    1  UNL1        0.1139
     22 N          63.8656   83.7724    9.4139 N.ar    1  UNL1       -0.2394
     23 C          64.5192   82.9115   10.4540 C.ar    1  UNL1        0.1195
     24 C          64.1994   83.1153   11.9053 C.ar    1  UNL1        0.1191
     25 N          63.2261   84.1799   12.3166 N.ar    1  UNL1       -0.2446
@<TRIPOS>BOND
     1    12    13    1
     2    13    14    1
     3    13    15    1
     4    15    16    1
     5    16    17    1
     6    17    11    1
     7    11    10    1
     8    10     1    1
     9     1     2    2
    10     2    19    1
    11    19    20    1
    12    20    21   ar
    13    21    22   ar
    14    22    23   ar
    15    23    24   ar
    16    24    25   ar
    17     2     3    1
    18     3     4   ar
    19     4     5   ar
    20     5     6   ar
    21     6     7   ar
    22     7     8   ar
    23     8     9    1
    24    17    18    1
    25    18    13    1
    26     9     1    1
    27    25    20   ar
    28     8     3   ar
@<TRIPOS>MOLECULE
*****
 25 28 0 0 0
SMALL
GASTEIGER

@<TRIPOS>ATOM
      1 C          64.2360   91.3853   11.6677 C.2     1  UNL1       -0.0420
      2 C          65.5712   92.0678   11.6277 C.2     1  UNL1       -0.0240
      3 C          66.0312   92.2696   13.0411 C.ar    1  UNL1       -0.0078
      4 C          67.2712   92.8891   13.6143 C.ar    1  UNL1       -0.0006
      5 C          67.4603   92.9508   15.1011 C.ar    1  UNL1       -0.0000
      6 C          66.4094   92.3930   16.0146 C.ar    1  UNL1       -0.0003
      7 C          65.1695   91.7734   15.4414 C.ar    1  UNL1       -0.0040
      8 C          64.9803   91.7117   13.9547 C.ar    1  UNL1       -0.0184
      9 C          63.8709   91.1653   13.1058 C.3     1  UNL1        0.0480
     10 C          63.4109   90.9920   10.4784 C.3     1  UNL1        0.0394
     11 C          61.9789   90.5846   10.6607 C.3     1  UNL1        0.0766
     12 F          59.9645   86.1148    8.5619 F       1  UNL1       -0.2028
     13 C          60.3309   87.5182    8.9441 C.3     1  UNL1        0.2797
     14 F          59.3250   87.8982    7.8982 F       1  UNL1       -0.2028
     15 C          61.2602   86.8448    9.9101 C.3     1  UNL1        0.0853
     16 C          61.9906   87.9116   10.6707 C.3     1  UNL1        0.0779
     17 N          61.5128   89.2442   10.1748 N.3     1  UNL1       -0.2677
     18 C          60.4870   89.0011    9.1077 C.3     1  UNL1        0.1395
     19 C          66.3156   92.4768   10.3914 C.3     1  UNL1        0.0730
     20 C          66.4869   93.9311   10.0656 C.ar    1  UNL1        0.0825
     21 C          67.5828   94.3682    9.1394 C.ar    1  UNL1        0.1139
     22 N          67.7541   95.8223    8.8136 N.ar    1  UNL1       -0.2394
     23 C          66.8294   96.8393    9.4141 C.ar    1  UNL1        0.1195
     24 C          65.7335   96.4022   10.3403 C.ar    1  UNL1        0.1191
     25 N          65.5622   94.9481   10.6661 N.ar    1  UNL1       -0.2446
@<TRIPOS>BOND
     1    12    13    1
     2    13    14    1
     3    13    15    1
     4    15    16    1
     5    16    17    1
     6    17    11    1
     7    11    10    1
     8    10     1    1
     9     1     2    2
    10     2    19    1
    11    19    20    1
    12    20    21   ar
    13    21    22   ar
    14    22    23   ar
    15    23    24   ar
    16    24    25   ar
    17     2     3    1
    18     3     4   ar
    19     4     5   ar
    20     5     6   ar
    21     6     7   ar
    22     7     8   ar
    23     8     9    1
    24    17    18    1
    25    18    13    1
    26     9     1    1
    27    25    20   ar
    28     8     3   ar
