@<TRIPOS>MOLECULE
*****
 36 41 0 0 0
SMALL
GASTEIGER

@<TRIPOS>ATOM
      1 C          63.9764   88.7537   14.5338 C.3     1  UNL1        0.0745
      2 C          63.3027   89.3251   15.7460 C.3     1  UNL1        0.0356
      3 C          62.9783   88.4386   16.9117 C.3     1  UNL1        0.0594
      4 C          62.8522   87.2334   17.7957 C.3     1  UNL1        0.0174
      5 C          63.4429   86.0616   17.0688 C.3     1  UNL1        0.0174
      6 C          63.9339   86.5427   15.7356 C.3     1  UNL1        0.0594
      7 C          64.3257   87.2957   14.4872 C.3     1  UNL1        0.0356
      8 N          63.6468   88.0118   15.6385 N.3     1  UNL1       -0.2715
      9 O          65.0256   91.5247   15.0033 O.2     1  UNL1       -0.2701
     10 C          64.8255   91.0258   13.6029 C.2     1  UNL1        0.2458
     11 N          64.3009   89.6403   13.3681 N.am    1  UNL1       -0.3024
     12 H          64.1695   89.3129   12.4490 H       1  UNL1        0.1497
     13 C          65.1499   91.9125   12.4373 C.ar    1  UNL1        0.0534
     14 C          64.2718   91.9040   11.2212 C.ar    1  UNL1        0.0045
     15 C          64.5962   92.7906   10.0557 C.ar    1  UNL1        0.0001
     16 C          65.7988   93.6858   10.1061 C.ar    1  UNL1        0.0000
     17 C          66.6769   93.6943   11.3222 C.ar    1  UNL1        0.0001
     18 C          66.3525   92.8076   12.4878 C.ar    1  UNL1        0.0044
     19 C          67.2306   92.8161   13.7039 C.ar    1  UNL1        0.0001
     20 C          67.0545   93.8779   14.7487 C.ar    1  UNL1        0.0000
     21 C          67.9326   93.8864   15.9648 C.ar    1  UNL1        0.0000
     22 C          68.9868   92.8331   16.1361 C.ar    1  UNL1        0.0000
     23 C          69.1628   91.7713   15.0913 C.ar    1  UNL1        0.0000
     24 C          68.2847   91.7628   13.8752 C.ar    1  UNL1        0.0000
     25 C          63.9713   88.8983   14.4729 C.3     1  UNL1        0.0991
     26 C          63.0744   88.9148   13.2706 C.ar    1  UNL1       -0.0061
     27 C          62.1133   90.0483   13.0674 C.ar    1  UNL1       -0.0029
     28 C          61.2164   90.0648   11.8652 C.ar    1  UNL1       -0.0002
     29 C          61.2807   88.9477   10.8662 C.ar    1  UNL1        0.0022
     30 C          60.3838   88.9642    9.6639 C.ar    1  UNL1        0.0296
     31 C          60.4481   87.8471    8.6649 C.ar    1  UNL1        0.1401
     32 F          59.5513   87.8635    7.4627 F       1  UNL1       -0.2042
     33 C          61.4093   86.7135    8.8682 C.ar    1  UNL1        0.0296
     34 C          62.3061   86.6971   10.0704 C.ar    1  UNL1        0.0023
     35 C          62.2418   87.8142   11.0694 C.ar    1  UNL1       -0.0001
     36 C          63.1386   87.7977   12.2716 C.ar    1  UNL1       -0.0029
@<TRIPOS>BOND
     1     9    10    2
     2    10    11   am
     3    11     1    1
     4     1     2    1
     5     2     3    1
     6     3     4    1
     7     4     5    1
     8     5     6    1
     9     6     7    1
    10     6     8    1
    11     8    25    1
    12    25    26    1
    13    26    27   ar
    14    27    28   ar
    15    28    29   ar
    16    29    30   ar
    17    30    31   ar
    18    31    32    1
    19    31    33   ar
    20    33    34   ar
    21    34    35   ar
    22    35    36   ar
    23    10    13    1
    24    13    14   ar
    25    14    15   ar
    26    15    16   ar
    27    16    17   ar
    28    17    18   ar
    29    18    19    1
    30    19    20   ar
    31    20    21   ar
    32    21    22   ar
    33    22    23   ar
    34    23    24   ar
    35     7     1    1
    36    36    26   ar
    37    18    13   ar
    38    24    19   ar
    39     8     3    1
    40    35    29   ar
    41    11    12    1
@<TRIPOS>MOLECULE
*****
 36 41 0 0 0
SMALL
GASTEIGER

@<TRIPOS>ATOM
      1 C          62.7101   90.2031   11.6232 C.3     1  UNL1        0.0745
      2 C          61.2811   90.5063   11.9640 C.3     1  UNL1        0.0356
      3 C          60.2015   90.2677   10.9504 C.3     1  UNL1        0.0594
      4 C          59.4920   89.8900    9.6839 C.3     1  UNL1        0.0174
      5 C          60.5188   89.4022    8.7052 C.3     1  UNL1        0.0174
      6 C          61.8628   89.4783    9.3668 C.3     1  UNL1        0.0594
      7 C          63.0595   89.6613   10.2689 C.3     1  UNL1        0.0356
      8 N          61.6668   90.0133   10.7544 N.3     1  UNL1       -0.2715
      9 O          64.3900   92.6839   11.4697 O.2     1  UNL1       -0.2701
     10 C          64.6297   91.6822   12.5602 C.2     1  UNL1        0.2458
     11 N          63.7898   90.4418   12.6370 N.am    1  UNL1       -0.3024
     12 H          63.9470   89.7843   13.3526 H       1  UNL1        0.1497
     13 C          65.7093   91.9208   13.5738 C.ar    1  UNL1        0.0534
     14 C          65.4589   91.6186   15.0216 C.ar    1  UNL1        0.0045
     15 C          66.5384   91.8572   16.0352 C.ar    1  UNL1        0.0001
     16 C          67.8685   92.3982   15.6011 C.ar    1  UNL1        0.0000
     17 C          68.1189   92.7005   14.1534 C.ar    1  UNL1        0.0001
     18 C          67.0392   92.4618   13.1397 C.ar    1  UNL1        0.0044
     19 C          67.2896   92.7640   11.6920 C.ar    1  UNL1        0.0001
     20 C          66.8147   94.0594   11.1032 C.ar    1  UNL1        0.0000
     21 C          67.0651   94.3617    9.6555 C.ar    1  UNL1        0.0000
     22 C          67.7905   93.3686    8.7965 C.ar    1  UNL1        0.0000
     23 C          68.2654   92.0733    9.3853 C.ar    1  UNL1        0.0000
     24 C          68.0149   91.7710   10.8330 C.ar    1  UNL1        0.0000
     25 C          62.7464   90.2519   11.7680 C.3     1  UNL1        0.0991
     26 C          63.2236   89.1246   12.6350 C.ar    1  UNL1       -0.0061
     27 C          63.9173   89.4179   13.9322 C.ar    1  UNL1       -0.0029
     28 C          64.3945   88.2907   14.7991 C.ar    1  UNL1       -0.0002
     29 C          64.1779   86.8701   14.3689 C.ar    1  UNL1        0.0022
     30 C          64.6551   85.7429   15.2359 C.ar    1  UNL1        0.0296
     31 C          64.4385   84.3223   14.8057 C.ar    1  UNL1        0.1401
     32 F          64.9156   83.1951   15.6726 F       1  UNL1       -0.2042
     33 C          63.7447   84.0290   13.5085 C.ar    1  UNL1        0.0296
     34 C          63.2675   85.1562   12.6415 C.ar    1  UNL1        0.0023
     35 C          63.4841   86.5768   13.0718 C.ar    1  UNL1       -0.0001
     36 C          63.0070   87.7040   12.2048 C.ar    1  UNL1       -0.0029
@<TRIPOS>BOND
     1     9    10    2
     2    10    11   am
     3    11     1    1
     4     1     2    1
     5     2     3    1
     6     3     4    1
     7     4     5    1
     8     5     6    1
     9     6     7    1
    10     6     8    1
    11     8    25    1
    12    25    26    1
    13    26    27   ar
    14    27    28   ar
    15    28    29   ar
    16    29    30   ar
    17    30    31   ar
    18    31    32    1
    19    31    33   ar
    20    33    34   ar
    21    34    35   ar
    22    35    36   ar
    23    10    13    1
    24    13    14   ar
    25    14    15   ar
    26    15    16   ar
    27    16    17   ar
    28    17    18   ar
    29    18    19    1
    30    19    20   ar
    31    20    21   ar
    32    21    22   ar
    33    22    23   ar
    34    23    24   ar
    35     7     1    1
    36    36    26   ar
    37    18    13   ar
    38    24    19   ar
    39     8     3    1
    40    35    29   ar
    41    11    12    1
@<TRIPOS>MOLECULE
*****
 36 41 0 0 0
SMALL
GASTEIGER

@<TRIPOS>ATOM
      1 C          61.4144   87.3538   10.2576 C.3     1  UNL1        0.0745
      2 C          61.5747   86.5783    8.9837 C.3     1  UNL1        0.0356
      3 C          60.5859   86.7535    7.8695 C.3     1  UNL1        0.0594
      4 C          59.4118   87.2281    7.0656 C.3     1  UNL1        0.0174
      5 C          58.6557   88.2247    7.8934 C.3     1  UNL1        0.0174
      6 C          59.3626   88.3660    9.2089 C.3     1  UNL1        0.0594
      7 C          60.2652   88.3044   10.4174 C.3     1  UNL1        0.0356
      8 N          60.5555   87.4568    9.1941 N.3     1  UNL1       -0.2715
      9 O          61.7565   84.6686   11.5510 O.2     1  UNL1       -0.2701
     10 C          62.5744   85.8359   12.0185 C.2     1  UNL1        0.2458
     11 N          62.4033   87.1785   11.3719 N.am    1  UNL1       -0.3024
     12 H          62.9401   87.9446   11.6787 H       1  UNL1        0.1497
     13 C          63.5632   85.6606   13.1327 C.ar    1  UNL1        0.0534
     14 C          63.8858   86.8127   14.0374 C.ar    1  UNL1        0.0045
     15 C          64.8746   86.6374   15.1516 C.ar    1  UNL1        0.0001
     16 C          65.5410   85.3099   15.3611 C.ar    1  UNL1        0.0000
     17 C          65.2184   84.1578   14.4563 C.ar    1  UNL1        0.0001
     18 C          64.2295   84.3332   13.3421 C.ar    1  UNL1        0.0044
     19 C          63.9069   83.1810   12.4374 C.ar    1  UNL1        0.0001
     20 C          63.0560   82.0510   12.9364 C.ar    1  UNL1        0.0000
     21 C          62.7334   80.8988   12.0317 C.ar    1  UNL1        0.0000
     22 C          63.2618   80.8767   10.6279 C.ar    1  UNL1        0.0000
     23 C          64.1127   82.0067   10.1290 C.ar    1  UNL1        0.0000
     24 C          64.4353   83.1589   11.0337 C.ar    1  UNL1        0.0000
     25 C          61.5443   87.2816   10.3083 C.3     1  UNL1        0.0991
     26 C          62.3410   88.4554   10.7955 C.ar    1  UNL1       -0.0061
     27 C          62.7519   89.5330    9.8364 C.ar    1  UNL1       -0.0029
     28 C          63.5486   90.7068   10.3237 C.ar    1  UNL1       -0.0002
     29 C          63.9344   90.8030   11.7700 C.ar    1  UNL1        0.0022
     30 C          64.7312   91.9769   12.2573 C.ar    1  UNL1        0.0296
     31 C          65.1170   92.0730   13.7036 C.ar    1  UNL1        0.1401
     32 F          65.9137   93.2468   14.1909 F       1  UNL1       -0.2042
     33 C          64.7061   90.9953   14.6627 C.ar    1  UNL1        0.0296
     34 C          63.9094   89.8215   14.1754 C.ar    1  UNL1        0.0023
     35 C          63.5236   89.7254   12.7291 C.ar    1  UNL1       -0.0001
     36 C          62.7269   88.5516   12.2419 C.ar    1  UNL1       -0.0029
@<TRIPOS>BOND
     1     9    10    2
     2    10    11   am
     3    11     1    1
     4     1     2    1
     5     2     3    1
     6     3     4    1
     7     4     5    1
     8     5     6    1
     9     6     7    1
    10     6     8    1
    11     8    25    1
    12    25    26    1
    13    26    27   ar
    14    27    28   ar
    15    28    29   ar
    16    29    30   ar
    17    30    31   ar
    18    31    32    1
    19    31    33   ar
    20    33    34   ar
    21    34    35   ar
    22    35    36   ar
    23    10    13    1
    24    13    14   ar
    25    14    15   ar
    26    15    16   ar
    27    16    17   ar
    28    17    18   ar
    29    18    19    1
    30    19    20   ar
    31    20    21   ar
    32    21    22   ar
    33    22    23   ar
    34    23    24   ar
    35     7     1    1
    36    36    26   ar
    37    18    13   ar
    38    24    19   ar
    39     8     3    1
    40    35    29   ar
    41    11    12    1
@<TRIPOS>MOLECULE
*****
 36 41 0 0 0
SMALL
GASTEIGER

@<TRIPOS>ATOM
      1 C          62.8126   84.6955   12.8672 C.3     1  UNL1        0.0745
      2 C          63.8559   83.9271   12.1116 C.3     1  UNL1        0.0356
      3 C          64.3500   82.6135   12.6409 C.3     1  UNL1        0.0594
      4 C          64.5358   81.4039   13.5083 C.3     1  UNL1        0.0174
      5 C          63.6163   81.5328   14.6865 C.3     1  UNL1        0.0174
      6 C          62.8623   82.8220   14.5471 C.3     1  UNL1        0.0594
      7 C          62.2633   84.1503   14.1521 C.3     1  UNL1        0.0356
      8 N          63.3157   83.4899   13.2829 N.3     1  UNL1       -0.2715
      9 O          60.9640   84.7613   10.5053 O.2     1  UNL1       -0.2701
     10 C          61.3942   86.0421   11.1569 C.2     1  UNL1        0.2458
     11 N          62.3185   86.0092   12.3379 N.am    1  UNL1       -0.3024
     12 H          62.6008   86.8498   12.7656 H       1  UNL1        0.1497
     13 C          60.9001   87.3557   10.6276 C.ar    1  UNL1        0.0534
     14 C          60.4751   88.4354   11.5782 C.ar    1  UNL1        0.0045
     15 C          59.9810   89.7490   11.0489 C.ar    1  UNL1        0.0001
     16 C          59.9119   89.9830    9.5688 C.ar    1  UNL1        0.0000
     17 C          60.3369   88.9033    8.6182 C.ar    1  UNL1        0.0001
     18 C          60.8310   87.5897    9.1476 C.ar    1  UNL1        0.0044
     19 C          61.2560   86.5100    8.1969 C.ar    1  UNL1        0.0001
     20 C          60.2558   85.8979    7.2615 C.ar    1  UNL1        0.0000
     21 C          60.6807   84.8183    6.3109 C.ar    1  UNL1        0.0000
     22 C          62.1060   84.3507    6.2956 C.ar    1  UNL1        0.0000
     23 C          63.1062   84.9628    7.2310 C.ar    1  UNL1        0.0000
     24 C          62.6812   86.0425    8.1817 C.ar    1  UNL1        0.0000
     25 C          62.8216   84.8035   12.7536 C.3     1  UNL1        0.0991
     26 C          63.3725   86.0873   13.3000 C.ar    1  UNL1       -0.0061
     27 C          64.0920   86.0947   14.6161 C.ar    1  UNL1       -0.0029
     28 C          64.6428   87.3785   15.1625 C.ar    1  UNL1       -0.0002
     29 C          64.4742   88.6548   14.3927 C.ar    1  UNL1        0.0022
     30 C          65.0250   89.9386   14.9391 C.ar    1  UNL1        0.0296
     31 C          64.8564   91.2149   14.1694 C.ar    1  UNL1        0.1401
     32 F          65.4072   92.4986   14.7157 F       1  UNL1       -0.2042
     33 C          64.1368   91.2074   12.8532 C.ar    1  UNL1        0.0296
     34 C          63.5860   89.9237   12.3068 C.ar    1  UNL1        0.0023
     35 C          63.7546   88.6474   13.0766 C.ar    1  UNL1       -0.0001
     36 C          63.2038   87.3636   12.5303 C.ar    1  UNL1       -0.0029
@<TRIPOS>BOND
     1     9    10    2
     2    10    11   am
     3    11     1    1
     4     1     2    1
     5     2     3    1
     6     3     4    1
     7     4     5    1
     8     5     6    1
     9     6     7    1
    10     6     8    1
    11     8    25    1
    12    25    26    1
    13    26    27   ar
    14    27    28   ar
    15    28    29   ar
    16    29    30   ar
    17    30    31   ar
    18    31    32    1
    19    31    33   ar
    20    33    34   ar
    21    34    35   ar
    22    35    36   ar
    23    10    13    1
    24    13    14   ar
    25    14    15   ar
    26    15    16   ar
    27    16    17   ar
    28    17    18   ar
    29    18    19    1
    30    19    20   ar
    31    20    21   ar
    32    21    22   ar
    33    22    23   ar
    34    23    24   ar
    35     7     1    1
    36    36    26   ar
    37    18    13   ar
    38    24    19   ar
    39     8     3    1
    40    35    29   ar
    41    11    12    1
@<TRIPOS>MOLECULE
*****
 36 41 0 0 0
SMALL
GASTEIGER

@<TRIPOS>ATOM
      1 C          63.2680   83.3490   11.8370 C.3     1  UNL1        0.0745
      2 C          63.6106   82.6155   10.5742 C.3     1  UNL1        0.0356
      3 C          63.3982   81.1332   10.4867 C.3     1  UNL1        0.0594
      4 C          63.0360   79.7207   10.8384 C.3     1  UNL1        0.0174
      5 C          62.5177   79.7120   12.2461 C.3     1  UNL1        0.0174
      6 C          62.5596   81.1190   12.7642 C.3     1  UNL1        0.0594
      7 C          62.7130   82.6002   13.0122 C.3     1  UNL1        0.0356
      8 N          63.1038   81.9974   11.6769 N.3     1  UNL1       -0.2715
      9 O          61.1297   85.2291   10.8921 O.2     1  UNL1       -0.2701
     10 C          62.4113   85.7714   11.4520 C.2     1  UNL1        0.2458
     11 N          63.4804   84.8313   11.9245 N.am    1  UNL1       -0.3024
     12 H          64.3216   85.1872   12.2920 H       1  UNL1        0.1497
     13 C          62.6237   87.2537   11.5394 C.ar    1  UNL1        0.0534
     14 C          63.4142   87.8323   12.6753 C.ar    1  UNL1        0.0045
     15 C          63.6266   89.3146   12.7628 C.ar    1  UNL1        0.0001
     16 C          63.0485   90.2183   11.7143 C.ar    1  UNL1        0.0000
     17 C          62.2580   89.6396   10.5784 C.ar    1  UNL1        0.0001
     18 C          62.0456   88.1573   10.4910 C.ar    1  UNL1        0.0044
     19 C          61.2551   87.5786    9.3551 C.ar    1  UNL1        0.0001
     20 C          61.8194   86.4467    8.5486 C.ar    1  UNL1        0.0000
     21 C          61.0289   85.8680    7.4127 C.ar    1  UNL1        0.0000
     22 C          59.6740   86.4212    7.0834 C.ar    1  UNL1        0.0000
     23 C          59.1097   87.5530    7.8899 C.ar    1  UNL1        0.0000
     24 C          59.9003   88.1317    9.0258 C.ar    1  UNL1        0.0000
     25 C          63.3162   83.4796   11.7644 C.3     1  UNL1        0.0991
     26 C          63.4797   84.1361   13.1032 C.ar    1  UNL1       -0.0061
     27 C          64.8527   84.4044   13.6443 C.ar    1  UNL1       -0.0029
     28 C          65.0162   85.0609   14.9831 C.ar    1  UNL1       -0.0002
     29 C          63.8066   85.4491   15.7807 C.ar    1  UNL1        0.0022
     30 C          63.9702   86.1056   17.1195 C.ar    1  UNL1        0.0296
     31 C          62.7606   86.4939   17.9172 C.ar    1  UNL1        0.1401
     32 F          62.9241   87.1503   19.2559 F       1  UNL1       -0.2042
     33 C          61.3875   86.2256   17.3760 C.ar    1  UNL1        0.0296
     34 C          61.2241   85.5691   16.0373 C.ar    1  UNL1        0.0023
     35 C          62.4336   85.1809   15.2396 C.ar    1  UNL1       -0.0001
     36 C          62.2701   84.5244   13.9009 C.ar    1  UNL1       -0.0029
@<TRIPOS>BOND
     1     9    10    2
     2    10    11   am
     3    11     1    1
     4     1     2    1
     5     2     3    1
     6     3     4    1
     7     4     5    1
     8     5     6    1
     9     6     7    1
    10     6     8    1
    11     8    25    1
    12    25    26    1
    13    26    27   ar
    14    27    28   ar
    15    28    29   ar
    16    29    30   ar
    17    30    31   ar
    18    31    32    1
    19    31    33   ar
    20    33    34   ar
    21    34    35   ar
    22    35    36   ar
    23    10    13    1
    24    13    14   ar
    25    14    15   ar
    26    15    16   ar
    27    16    17   ar
    28    17    18   ar
    29    18    19    1
    30    19    20   ar
    31    20    21   ar
    32    21    22   ar
    33    22    23   ar
    34    23    24   ar
    35     7     1    1
    36    36    26   ar
    37    18    13   ar
    38    24    19   ar
    39     8     3    1
    40    35    29   ar
    41    11    12    1
