@<TRIPOS>MOLECULE
*****
 37 41 0 0 0
SMALL
GASTEIGER

@<TRIPOS>ATOM
      1 C          63.0315   84.4198   12.3540 C.3     1  UNL1        0.1411
      2 C          62.0241   85.5140   12.5486 C.3     1  UNL1        0.0448
      3 C          61.4025   86.1817   11.3579 C.3     1  UNL1        0.0255
      4 C          61.9680   85.5693   11.5825 C.3     1  UNL1        0.0045
      5 C          62.5606   84.9279   11.8562 C.3     1  UNL1        0.0008
      6 C          62.9724   84.4790   11.4843 C.3     1  UNL1        0.0078
      7 C          63.4172   83.9933   10.9686 C.3     1  UNL1        0.0588
      8 C          62.7956   84.6609    9.7778 C.ar    1  UNL1       -0.0231
      9 C          63.1814   84.2344    8.3925 C.ar    1  UNL1       -0.0045
     10 C          62.5598   84.9020    7.2018 C.ar    1  UNL1       -0.0003
     11 C          61.5524   85.9962    7.3964 C.ar    1  UNL1       -0.0003
     12 C          61.1667   86.4228    8.7818 C.ar    1  UNL1       -0.0046
     13 C          61.7882   85.7551    9.9725 C.ar    1  UNL1       -0.0262
     14 C          62.9906   84.4728   13.8525 C.3     1  UNL1        0.0577
     15 C          63.9559   85.3453   14.5987 C.3     1  UNL1        0.0757
     16 N          63.4963   86.1141   15.8019 N.3     1  UNL1       -0.2714
     17 C          62.5533   85.4806   16.7814 C.3     1  UNL1        0.0896
     18 C          63.9796   87.5164   16.0255 C.3     1  UNL1        0.0728
     19 C          63.1435   88.4813   16.8129 C.3     1  UNL1        0.0303
     20 C          63.1733   89.9438   16.4811 C.3     1  UNL1        0.1247
     21 C          62.8058   90.6150   11.2133 C.2     1  UNL1        0.1731
     22 C          63.5854   91.4190   10.2155 C.2     1  UNL1        0.0374
     23 C          64.7429   92.2585   10.6688 C.2     1  UNL1        0.0065
     24 C          65.1207   92.2940   12.1200 C.2     1  UNL1        0.0470
     25 C          64.3410   91.4900   13.1179 C.2     1  UNL1        0.2269
     26 N          64.4781   91.3275   14.6027 N.2     1  UNL1       -0.0385
     27 C          63.4053   90.3875   15.0671 C.2     1  UNL1        0.3469
     28 N          62.6053   89.9691   13.8693 N.2     1  UNL1       -0.0518
     29 C          63.1836   90.6505   12.6646 C.3     1  UNL1        0.3344
     30 C          60.2434   90.2282   11.0273 C.3     1  UNL1        0.2522
     31 O          61.6483   89.7755   10.7601 O.2     1  UNL1       -0.4709
     32 O          64.0246   83.3440   12.6797 O.3     1  UNL1       -0.4554
     33 C          63.6177   82.1819   13.5363 C.2     1  UNL1        0.3162
     34 O          64.2605   81.9762   14.8759 O.2     1  UNL1       -0.2501
     35 C          62.5679   81.2255   13.0534 C.3     1  UNL1        0.0991
     36 C          62.7959   80.4308   11.8018 C.3     1  UNL1        0.0116
     37 C          61.2900   81.0638   13.8221 C.3     1  UNL1        0.0116
@<TRIPOS>BOND
     1    30    31    1
     2    31    21    1
     3    21    22    2
     4    22    23    1
     5    23    24    2
     6    24    25    1
     7    25    26    2
     8    26    27    1
     9    27    20    1
    10    20    19    1
    11    19    18    1
    12    18    16    1
    13    16    17    1
    14    16    15    1
    15    15    14    1
    16     1    14    1
    17     1    32    1
    18    32    33    1
    19    33    34    2
    20    33    35    1
    21    35    36    1
    22    35    37    1
    23     1     2    1
    24     3     2    1
    25     3     4    1
    26     4     5    1
    27     5     6    1
    28     7     6    1
    29     7     8    1
    30     8     9   ar
    31     9    10   ar
    32    10    11   ar
    33    11    12   ar
    34    12    13   ar
    35    27    28    2
    36    28    29    1
    37    29    21    1
    38    29    25    1
    39     7     1    1
    40    13     8   ar
    41    13     3    1
@<TRIPOS>MOLECULE
*****
 37 41 0 0 0
SMALL
GASTEIGER

@<TRIPOS>ATOM
      1 C          63.0525   84.5077   12.3728 C.3     1  UNL1        0.1411
      2 C          62.0419   85.6047   12.5317 C.3     1  UNL1        0.0448
      3 C          61.4129   86.2263   11.3202 C.3     1  UNL1        0.0255
      4 C          61.9817   85.6245   11.5646 C.3     1  UNL1        0.0045
      5 C          62.5777   84.9956   11.8589 C.3     1  UNL1        0.0008
      6 C          62.9896   84.5349   11.5019 C.3     1  UNL1        0.0078
      7 C          63.4341   84.0323   11.0023 C.3     1  UNL1        0.0588
      8 C          62.8051   84.6539    9.7906 C.ar    1  UNL1       -0.0231
      9 C          63.1867   84.1785    8.4201 C.ar    1  UNL1       -0.0045
     10 C          62.5577   84.8001    7.2086 C.ar    1  UNL1       -0.0003
     11 C          61.5471   85.8971    7.3675 C.ar    1  UNL1       -0.0003
     12 C          61.1655   86.3725    8.7380 C.ar    1  UNL1       -0.0046
     13 C          61.7945   85.7509    9.9496 C.ar    1  UNL1       -0.0262
     14 C          63.0177   84.6151   13.8685 C.3     1  UNL1        0.0577
     15 C          64.0231   85.4689   14.5828 C.3     1  UNL1        0.0757
     16 N          63.5892   86.3475   15.7185 N.3     1  UNL1       -0.2714
     17 C          62.8886   85.7507   16.9030 C.3     1  UNL1        0.0896
     18 C          63.8558   87.8227   15.6696 C.3     1  UNL1        0.0728
     19 C          63.2138   88.7345   16.6730 C.3     1  UNL1        0.0303
     20 C          63.2350   90.2190   16.4589 C.3     1  UNL1        0.1247
     21 C          66.4505   92.7462   13.0518 C.2     1  UNL1        0.1731
     22 C          66.4317   92.9462   11.5653 C.2     1  UNL1        0.0374
     23 C          65.3227   92.3592   10.7435 C.2     1  UNL1        0.0065
     24 C          64.2323   91.5722   11.4083 C.2     1  UNL1        0.0470
     25 C          64.2512   91.3722   12.8947 C.2     1  UNL1        0.2269
     26 N          63.3200   90.6489   13.8220 N.2     1  UNL1       -0.0385
     27 C          63.8537   90.7888   15.2169 C.2     1  UNL1        0.3469
     28 N          65.1146   91.5987   15.1517 N.2     1  UNL1       -0.0518
     29 C          65.3602   91.9592   13.7166 C.3     1  UNL1        0.3344
     30 C          68.4331   92.4388   14.7026 C.3     1  UNL1        0.2522
     31 O          67.5596   93.3332   13.8736 O.2     1  UNL1       -0.4709
     32 O          64.0510   83.4480   12.7333 O.3     1  UNL1       -0.4554
     33 C          63.6419   82.2969   13.6036 C.2     1  UNL1        0.3162
     34 O          64.2579   82.1268   14.9607 O.2     1  UNL1       -0.2501
     35 C          62.6168   81.3159   13.1171 C.3     1  UNL1        0.0991
     36 C          61.3644   81.0846   13.9096 C.3     1  UNL1        0.0116
     37 C          62.8441   80.5661   11.8379 C.3     1  UNL1        0.0116
@<TRIPOS>BOND
     1    30    31    1
     2    31    21    1
     3    21    22    2
     4    22    23    1
     5    23    24    2
     6    24    25    1
     7    25    26    2
     8    26    27    1
     9    27    20    1
    10    20    19    1
    11    19    18    1
    12    18    16    1
    13    16    17    1
    14    16    15    1
    15    15    14    1
    16     1    14    1
    17     1    32    1
    18    32    33    1
    19    33    34    2
    20    33    35    1
    21    35    36    1
    22    35    37    1
    23     1     2    1
    24     3     2    1
    25     3     4    1
    26     4     5    1
    27     5     6    1
    28     7     6    1
    29     7     8    1
    30     8     9   ar
    31     9    10   ar
    32    10    11   ar
    33    11    12   ar
    34    12    13   ar
    35    27    28    2
    36    28    29    1
    37    29    21    1
    38    29    25    1
    39     7     1    1
    40    13     8   ar
    41    13     3    1
@<TRIPOS>MOLECULE
*****
 37 41 0 0 0
SMALL
GASTEIGER

@<TRIPOS>ATOM
      1 C          62.2723   85.8655   11.2213 C.3     1  UNL1        0.1411
      2 C          62.6481   87.2774   11.5611 C.3     1  UNL1        0.0448
      3 C          62.0504   88.4183   10.7924 C.3     1  UNL1        0.0255
      4 C          62.0508   87.5569   10.8508 C.3     1  UNL1        0.0045
      5 C          62.0754   86.6466   10.9407 C.3     1  UNL1        0.0008
      6 C          61.7368   86.1296   10.5836 C.3     1  UNL1        0.0078
      7 C          61.2989   85.5946   10.1128 C.3     1  UNL1        0.0588
      8 C          60.7012   86.7355    9.3439 C.ar    1  UNL1       -0.0231
      9 C          59.7278   86.4645    8.2353 C.ar    1  UNL1       -0.0045
     10 C          59.1301   87.6055    7.4665 C.ar    1  UNL1       -0.0003
     11 C          59.5059   89.0173    7.8063 C.ar    1  UNL1       -0.0003
     12 C          60.4793   89.2883    8.9149 C.ar    1  UNL1       -0.0046
     13 C          61.0770   88.1474    9.6837 C.ar    1  UNL1       -0.0262
     14 C          63.2309   85.6161   12.3478 C.3     1  UNL1        0.0577
     15 C          62.7497   84.9689   13.6126 C.3     1  UNL1        0.0757
     16 N          63.6342   84.9399   14.8237 N.3     1  UNL1       -0.2714
     17 C          64.2572   83.6492   15.2667 C.3     1  UNL1        0.0896
     18 C          63.8958   86.2014   15.5918 C.3     1  UNL1        0.0728
     19 C          64.4781   87.3961   14.8961 C.3     1  UNL1        0.0303
     20 C          63.8749   88.7534   15.1050 C.3     1  UNL1        0.1247
     21 C          66.3487   93.2108   13.5731 C.2     1  UNL1        0.1731
     22 C          66.3795   93.9893   12.2913 C.2     1  UNL1        0.0374
     23 C          65.5862   93.5184   11.1086 C.2     1  UNL1        0.0065
     24 C          64.7621   92.2689   11.2077 C.2     1  UNL1        0.0470
     25 C          64.7313   91.4905   12.4895 C.2     1  UNL1        0.2269
     26 N          64.0168   90.2314   12.8822 N.2     1  UNL1       -0.0385
     27 C          64.3685   89.9242   14.3077 C.2     1  UNL1        0.3469
     28 N          65.3004   90.9934   14.7959 N.2     1  UNL1       -0.0518
     29 C          65.5246   91.9614   13.6722 C.3     1  UNL1        0.3344
     30 C          68.3751   92.9379   15.1761 C.3     1  UNL1        0.2522
     31 O          67.1420   93.6817   14.7558 O.2     1  UNL1       -0.4709
     32 O          62.2295   84.3671   11.2727 O.3     1  UNL1       -0.4554
     33 C          63.2778   83.5619   10.5637 C.2     1  UNL1        0.3162
     34 O          63.9280   84.1025    9.3248 O.2     1  UNL1       -0.2501
     35 C          63.6759   82.2163   11.0935 C.3     1  UNL1        0.0991
     36 C          64.6035   82.1172   12.2682 C.3     1  UNL1        0.0116
     37 C          63.1464   80.9698   10.4487 C.3     1  UNL1        0.0116
@<TRIPOS>BOND
     1    30    31    1
     2    31    21    1
     3    21    22    2
     4    22    23    1
     5    23    24    2
     6    24    25    1
     7    25    26    2
     8    26    27    1
     9    27    20    1
    10    20    19    1
    11    19    18    1
    12    18    16    1
    13    16    17    1
    14    16    15    1
    15    15    14    1
    16     1    14    1
    17     1    32    1
    18    32    33    1
    19    33    34    2
    20    33    35    1
    21    35    36    1
    22    35    37    1
    23     1     2    1
    24     3     2    1
    25     3     4    1
    26     4     5    1
    27     5     6    1
    28     7     6    1
    29     7     8    1
    30     8     9   ar
    31     9    10   ar
    32    10    11   ar
    33    11    12   ar
    34    12    13   ar
    35    27    28    2
    36    28    29    1
    37    29    21    1
    38    29    25    1
    39     7     1    1
    40    13     8   ar
    41    13     3    1
@<TRIPOS>MOLECULE
*****
 37 41 0 0 0
SMALL
GASTEIGER

@<TRIPOS>ATOM
      1 C          62.3347   85.7912   11.3546 C.3     1  UNL1        0.1411
      2 C          63.1981   86.2207   12.5035 C.3     1  UNL1        0.0448
      3 C          63.7660   85.1952   13.4392 C.3     1  UNL1        0.0255
      4 C          63.2723   85.2828   12.7364 C.3     1  UNL1        0.0045
      5 C          62.7541   85.4124   11.9935 C.3     1  UNL1        0.0008
      6 C          62.4090   84.9490   11.5744 C.3     1  UNL1        0.0078
      7 C          62.0392   84.3362   11.1414 C.3     1  UNL1        0.0588
      8 C          62.6072   83.3106   12.0772 C.ar    1  UNL1       -0.0231
      9 C          62.3117   81.8555   11.8640 C.ar    1  UNL1       -0.0045
     10 C          62.8796   80.8300   12.7997 C.ar    1  UNL1       -0.0003
     11 C          63.7430   81.2595   13.9487 C.ar    1  UNL1       -0.0003
     12 C          64.0385   82.7145   14.1618 C.ar    1  UNL1       -0.0046
     13 C          63.4706   83.7401   13.2261 C.ar    1  UNL1       -0.0262
     14 C          62.3297   87.2763   11.1432 C.3     1  UNL1        0.0577
     15 C          61.0293   88.0222   11.0922 C.3     1  UNL1        0.0757
     16 N          61.0119   89.5119   11.2670 N.3     1  UNL1       -0.2714
     17 C          59.7179   90.2638   11.1655 C.3     1  UNL1        0.0896
     18 C          62.2883   90.2496   11.5434 C.3     1  UNL1        0.0728
     19 C          63.1480   90.7135   10.4050 C.3     1  UNL1        0.0303
     20 C          64.0233   91.9204   10.5696 C.3     1  UNL1        0.1247
     21 C          65.8658   92.2932   15.5496 C.2     1  UNL1        0.1731
     22 C          67.2399   92.4164   16.1383 C.2     1  UNL1        0.0374
     23 C          68.4403   92.4540   15.2397 C.2     1  UNL1        0.0065
     24 C          68.2665   92.3684   13.7522 C.2     1  UNL1        0.0470
     25 C          66.8924   92.2452   13.1635 C.2     1  UNL1        0.2269
     26 N          66.4134   92.1422   11.7458 N.2     1  UNL1       -0.0385
     27 C          64.9170   92.0409   11.7682 C.2     1  UNL1        0.3469
     28 N          64.4711   92.0814   13.1999 N.2     1  UNL1       -0.0518
     29 C          65.6920   92.2076   14.0622 C.3     1  UNL1        0.3344
     30 C          63.7531   91.0649   16.4317 C.3     1  UNL1        0.2522
     31 O          64.6654   92.2556   16.4483 O.2     1  UNL1       -0.4709
     32 O          61.4696   85.8775   10.1323 O.3     1  UNL1       -0.4554
     33 C          62.0804   85.7369    8.7695 C.2     1  UNL1        0.3162
     34 O          63.5710   85.7829    8.6075 O.2     1  UNL1       -0.2501
     35 C          61.2009   85.5503    7.5689 C.3     1  UNL1        0.0991
     36 C          61.6946   84.7608    6.3929 C.3     1  UNL1        0.0116
     37 C          59.8277   86.1533    7.5442 C.3     1  UNL1        0.0116
@<TRIPOS>BOND
     1    30    31    1
     2    31    21    1
     3    21    22    2
     4    22    23    1
     5    23    24    2
     6    24    25    1
     7    25    26    2
     8    26    27    1
     9    27    20    1
    10    20    19    1
    11    19    18    1
    12    18    16    1
    13    16    17    1
    14    16    15    1
    15    15    14    1
    16     1    14    1
    17     1    32    1
    18    32    33    1
    19    33    34    2
    20    33    35    1
    21    35    36    1
    22    35    37    1
    23     1     2    1
    24     3     2    1
    25     3     4    1
    26     4     5    1
    27     5     6    1
    28     7     6    1
    29     7     8    1
    30     8     9   ar
    31     9    10   ar
    32    10    11   ar
    33    11    12   ar
    34    12    13   ar
    35    27    28    2
    36    28    29    1
    37    29    21    1
    38    29    25    1
    39     7     1    1
    40    13     8   ar
    41    13     3    1
@<TRIPOS>MOLECULE
*****
 37 41 0 0 0
SMALL
GASTEIGER

@<TRIPOS>ATOM
      1 C          62.3416   85.4623   11.5404 C.3     1  UNL1        0.1411
      2 C          62.8543   86.8158   11.9343 C.3     1  UNL1        0.0448
      3 C          62.3918   88.0370   11.1963 C.3     1  UNL1        0.0255
      4 C          62.3024   87.1788   11.2250 C.3     1  UNL1        0.0045
      5 C          62.2314   86.2683   11.2839 C.3     1  UNL1        0.0008
      6 C          61.8481   85.8012   10.9041 C.3     1  UNL1        0.0078
      7 C          61.3663   85.3300   10.4084 C.3     1  UNL1        0.0588
      8 C          60.9038   86.5512    9.6703 C.ar    1  UNL1       -0.0231
      9 C          59.9285   86.4189    8.5384 C.ar    1  UNL1       -0.0045
     10 C          59.4660   87.6401    7.8004 C.ar    1  UNL1       -0.0003
     11 C          59.9787   88.9936    8.1943 C.ar    1  UNL1       -0.0003
     12 C          60.9540   89.1259    9.3262 C.ar    1  UNL1       -0.0046
     13 C          61.4165   87.9047   10.0643 C.ar    1  UNL1       -0.0262
     14 C          63.2481   85.0782   12.6720 C.3     1  UNL1        0.0577
     15 C          62.6671   84.5882   13.9652 C.3     1  UNL1        0.0757
     16 N          63.0204   85.2716   15.2529 N.3     1  UNL1       -0.2714
     17 C          62.0503   85.2639   16.3969 C.3     1  UNL1        0.0896
     18 C          64.3439   85.9629   15.3965 C.3     1  UNL1        0.0728
     19 C          64.6288   87.2083   14.6105 C.3     1  UNL1        0.0303
     20 C          64.0151   88.5130   15.0241 C.3     1  UNL1        0.1247
     21 C          65.2717   92.5363   11.7731 C.2     1  UNL1        0.1731
     22 C          66.0015   93.8327   11.9649 C.2     1  UNL1        0.0374
     23 C          66.5453   94.1947   13.3151 C.2     1  UNL1        0.0065
     24 C          66.3593   93.2602   14.4737 C.2     1  UNL1        0.0470
     25 C          65.6294   91.9639   14.2820 C.2     1  UNL1        0.2269
     26 N          65.2946   90.8509   15.2302 N.2     1  UNL1       -0.0385
     27 C          64.5439   89.8010   14.4659 C.2     1  UNL1        0.3469
     28 N          64.4147   90.2651   13.0454 N.2     1  UNL1       -0.0518
     29 C          65.0856   91.6019   12.9317 C.3     1  UNL1        0.3344
     30 C          63.3574   91.5764   10.3020 C.3     1  UNL1        0.2522
     31 O          64.7279   92.1743   10.4229 O.2     1  UNL1       -0.4709
     32 O          62.1437   83.9755   11.5395 O.3     1  UNL1       -0.4554
     33 C          63.2496   83.0719   11.0807 C.2     1  UNL1        0.3162
     34 O          64.3848   83.6268   10.2724 O.2     1  UNL1       -0.2501
     35 C          63.2203   81.6135   11.4301 C.3     1  UNL1        0.0991
     36 C          63.1435   80.5830   10.3427 C.3     1  UNL1        0.0116
     37 C          63.2677   81.1854   12.8670 C.3     1  UNL1        0.0116
@<TRIPOS>BOND
     1    30    31    1
     2    31    21    1
     3    21    22    2
     4    22    23    1
     5    23    24    2
     6    24    25    1
     7    25    26    2
     8    26    27    1
     9    27    20    1
    10    20    19    1
    11    19    18    1
    12    18    16    1
    13    16    17    1
    14    16    15    1
    15    15    14    1
    16     1    14    1
    17     1    32    1
    18    32    33    1
    19    33    34    2
    20    33    35    1
    21    35    36    1
    22    35    37    1
    23     1     2    1
    24     3     2    1
    25     3     4    1
    26     4     5    1
    27     5     6    1
    28     7     6    1
    29     7     8    1
    30     8     9   ar
    31     9    10   ar
    32    10    11   ar
    33    11    12   ar
    34    12    13   ar
    35    27    28    2
    36    28    29    1
    37    29    21    1
    38    29    25    1
    39     7     1    1
    40    13     8   ar
    41    13     3    1
@<TRIPOS>MOLECULE
*****
 37 41 0 0 0
SMALL
GASTEIGER

@<TRIPOS>ATOM
      1 C          62.1195   85.7469   11.3117 C.3     1  UNL1        0.1411
      2 C          62.9213   86.2793   12.4623 C.3     1  UNL1        0.0448
      3 C          63.6207   85.3317   13.3912 C.3     1  UNL1        0.0255
      4 C          63.1184   85.3579   12.6895 C.3     1  UNL1        0.0045
      5 C          62.5862   85.4226   11.9479 C.3     1  UNL1        0.0008
      6 C          62.3041   84.9204   11.5264 C.3     1  UNL1        0.0078
      7 C          62.0172   84.2669   11.0901 C.3     1  UNL1        0.0588
      8 C          62.7166   83.3193   12.0190 C.ar    1  UNL1       -0.0231
      9 C          62.6143   81.8393   11.7974 C.ar    1  UNL1       -0.0045
     10 C          63.3137   80.8917   12.7263 C.ar    1  UNL1       -0.0003
     11 C          64.1154   81.4241   13.8768 C.ar    1  UNL1       -0.0003
     12 C          64.2178   82.9041   14.0985 C.ar    1  UNL1       -0.0046
     13 C          63.5184   83.8517   13.1696 C.ar    1  UNL1       -0.0262
     14 C          61.9193   87.2196   11.1094 C.3     1  UNL1        0.0577
     15 C          60.5410   87.7641   10.8767 C.3     1  UNL1        0.0757
     16 N          60.0640   88.9549   11.6541 N.3     1  UNL1       -0.2714
     17 C          58.9335   88.8101   12.6293 C.3     1  UNL1        0.0896
     18 C          60.7175   90.2905   11.4563 C.3     1  UNL1        0.0728
     19 C          61.4186   90.5988   10.1664 C.3     1  UNL1        0.0303
     20 C          62.9121   90.4901   10.0801 C.3     1  UNL1        0.1247
     21 C          66.3590   93.5725   12.7168 C.2     1  UNL1        0.1731
     22 C          66.8430   93.6044   14.1361 C.2     1  UNL1        0.0374
     23 C          66.3227   92.6074   15.1287 C.2     1  UNL1        0.0065
     24 C          65.3181   91.5785   14.7018 C.2     1  UNL1        0.0470
     25 C          64.8340   91.5466   13.2825 C.2     1  UNL1        0.2269
     26 N          63.8557   90.6560   12.5755 N.2     1  UNL1       -0.0385
     27 C          63.7716   91.1026   11.1460 C.2     1  UNL1        0.3469
     28 N          64.6978   92.2692   10.9695 N.2     1  UNL1       -0.0518
     29 C          65.3544   92.5436   12.2899 C.3     1  UNL1        0.3344
     30 C          66.1199   95.8370   11.4657 C.3     1  UNL1        0.2522
     31 O          66.8794   94.5695   11.7242 O.2     1  UNL1       -0.4709
     32 O          61.2483   85.7259   10.0909 O.3     1  UNL1       -0.4554
     33 C          61.8686   85.7675    8.7259 C.2     1  UNL1        0.3162
     34 O          63.3461   85.9813    8.5798 O.2     1  UNL1       -0.2501
     35 C          61.0116   85.5952    7.5070 C.3     1  UNL1        0.0991
     36 C          61.5129   84.7891    6.3455 C.3     1  UNL1        0.0116
     37 C          59.6533   86.2290    7.4494 C.3     1  UNL1        0.0116
@<TRIPOS>BOND
     1    30    31    1
     2    31    21    1
     3    21    22    2
     4    22    23    1
     5    23    24    2
     6    24    25    1
     7    25    26    2
     8    26    27    1
     9    27    20    1
    10    20    19    1
    11    19    18    1
    12    18    16    1
    13    16    17    1
    14    16    15    1
    15    15    14    1
    16     1    14    1
    17     1    32    1
    18    32    33    1
    19    33    34    2
    20    33    35    1
    21    35    36    1
    22    35    37    1
    23     1     2    1
    24     3     2    1
    25     3     4    1
    26     4     5    1
    27     5     6    1
    28     7     6    1
    29     7     8    1
    30     8     9   ar
    31     9    10   ar
    32    10    11   ar
    33    11    12   ar
    34    12    13   ar
    35    27    28    2
    36    28    29    1
    37    29    21    1
    38    29    25    1
    39     7     1    1
    40    13     8   ar
    41    13     3    1
@<TRIPOS>MOLECULE
*****
 37 41 0 0 0
SMALL
GASTEIGER

@<TRIPOS>ATOM
      1 C          61.8447   86.1139   11.0352 C.3     1  UNL1        0.1411
      2 C          62.7933   86.7927   11.9783 C.3     1  UNL1        0.0448
      3 C          63.6347   85.9755   12.9132 C.3     1  UNL1        0.0255
      4 C          63.0369   85.9093   12.2938 C.3     1  UNL1        0.0045
      5 C          62.4031   85.8760   11.6346 C.3     1  UNL1        0.0008
      6 C          62.0725   85.3229   11.3278 C.3     1  UNL1        0.0078
      7 C          61.7376   84.6178   11.0270 C.3     1  UNL1        0.0588
      8 C          62.5790   83.8004   11.9620 C.ar    1  UNL1       -0.0231
      9 C          62.4719   82.3043   11.9538 C.ar    1  UNL1       -0.0045
     10 C          63.3133   81.4871   12.8887 C.ar    1  UNL1       -0.0003
     11 C          64.2618   82.1659   13.8318 C.ar    1  UNL1       -0.0003
     12 C          64.3690   83.6620   13.8399 C.ar    1  UNL1       -0.0046
     13 C          63.5276   84.4793   12.9050 C.ar    1  UNL1       -0.0262
     14 C          61.5920   87.5471   10.6721 C.3     1  UNL1        0.0577
     15 C          60.3889   88.2580   11.2174 C.3     1  UNL1        0.0757
     16 N          60.4340   89.7394   11.4486 N.3     1  UNL1       -0.2714
     17 C          59.1580   90.5197   11.5636 C.3     1  UNL1        0.0896
     18 C          61.7549   90.4405   11.5647 C.3     1  UNL1        0.0728
     19 C          62.8484   89.8461   12.4021 C.3     1  UNL1        0.0303
     20 C          63.0740   90.3387   13.8007 C.3     1  UNL1        0.1247
     21 C          68.1201   92.0326   13.7560 C.2     1  UNL1        0.1731
     22 C          68.9662   92.7905   14.7356 C.2     1  UNL1        0.0374
     23 C          68.3865   93.2242   16.0493 C.2     1  UNL1        0.0065
     24 C          66.9605   92.8999   16.3833 C.2     1  UNL1        0.0470
     25 C          66.1145   92.1419   15.4037 C.2     1  UNL1        0.2269
     26 N          64.6877   91.6817   15.4553 N.2     1  UNL1       -0.0385
     27 C          64.3857   90.9636   14.1734 C.2     1  UNL1        0.3469
     28 N          65.6258   90.9800   13.3297 N.2     1  UNL1       -0.0518
     29 C          66.6942   91.7083   14.0900 C.3     1  UNL1        0.3344
     30 C          68.1254   92.1229   11.1594 C.3     1  UNL1        0.2522
     31 O          68.6999   91.5989   12.4423 O.2     1  UNL1       -0.4709
     32 O          60.8084   85.9328    9.9661 O.3     1  UNL1       -0.4554
     33 C          61.1224   86.3028    8.5467 C.2     1  UNL1        0.3162
     34 O          60.4769   87.5056    7.9250 O.2     1  UNL1       -0.2501
     35 C          62.0818   85.4701    7.7492 C.3     1  UNL1        0.0991
     36 C          61.5967   84.7060    6.5530 C.3     1  UNL1        0.0116
     37 C          63.5262   85.4015    8.1478 C.3     1  UNL1        0.0116
@<TRIPOS>BOND
     1    30    31    1
     2    31    21    1
     3    21    22    2
     4    22    23    1
     5    23    24    2
     6    24    25    1
     7    25    26    2
     8    26    27    1
     9    27    20    1
    10    20    19    1
    11    19    18    1
    12    18    16    1
    13    16    17    1
    14    16    15    1
    15    15    14    1
    16     1    14    1
    17     1    32    1
    18    32    33    1
    19    33    34    2
    20    33    35    1
    21    35    36    1
    22    35    37    1
    23     1     2    1
    24     3     2    1
    25     3     4    1
    26     4     5    1
    27     5     6    1
    28     7     6    1
    29     7     8    1
    30     8     9   ar
    31     9    10   ar
    32    10    11   ar
    33    11    12   ar
    34    12    13   ar
    35    27    28    2
    36    28    29    1
    37    29    21    1
    38    29    25    1
    39     7     1    1
    40    13     8   ar
    41    13     3    1
@<TRIPOS>MOLECULE
*****
 37 41 0 0 0
SMALL
GASTEIGER

@<TRIPOS>ATOM
      1 C          62.2640   89.0882   10.6341 C.3     1  UNL1        0.1411
      2 C          62.5506   88.7563   12.0686 C.3     1  UNL1        0.0448
      3 C          63.4646   89.6324   12.8729 C.3     1  UNL1        0.0255
      4 C          63.1159   89.5434   12.0881 C.3     1  UNL1        0.0045
      5 C          62.7290   89.4185   11.2683 C.3     1  UNL1        0.0008
      6 C          62.7762   89.7952   10.6640 C.3     1  UNL1        0.0078
      7 C          62.8913   90.2962   10.0040 C.3     1  UNL1        0.0588
      8 C          63.8054   91.1724   10.8083 C.ar    1  UNL1       -0.0231
      9 C          64.4327   92.3804   10.1782 C.ar    1  UNL1       -0.0045
     10 C          65.3467   93.2565   10.9825 C.ar    1  UNL1       -0.0003
     11 C          65.6334   92.9246   12.4170 C.ar    1  UNL1       -0.0003
     12 C          65.0060   91.7166   13.0471 C.ar    1  UNL1       -0.0046
     13 C          64.0920   90.8405   12.2428 C.ar    1  UNL1       -0.0262
     14 C          61.4374   87.8455   10.7842 C.3     1  UNL1        0.0577
     15 C          62.0971   86.5427   11.1271 C.3     1  UNL1        0.0757
     16 N          62.5512   85.6214   10.0339 N.3     1  UNL1       -0.2714
     17 C          62.2004   85.9211    8.6066 C.3     1  UNL1        0.0896
     18 C          63.3560   84.4006   10.3680 C.3     1  UNL1        0.0728
     19 C          63.2256   83.7630   11.7196 C.3     1  UNL1        0.0303
     20 C          64.2634   84.0177   12.7722 C.3     1  UNL1        0.1247
     21 C          63.5179   88.0070   16.2167 C.2     1  UNL1        0.1731
     22 C          62.9964   88.0777   17.6213 C.2     1  UNL1        0.0374
     23 C          62.5565   86.8266   18.3221 C.2     1  UNL1        0.0065
     24 C          62.6381   85.5045   17.6180 C.2     1  UNL1        0.0470
     25 C          63.1595   85.4338   16.2134 C.2     1  UNL1        0.2269
     26 N          63.3547   84.2823   15.2721 N.2     1  UNL1       -0.0385
     27 C          63.9152   84.8219   13.9896 C.2     1  UNL1        0.3469
     28 N          64.0665   86.3068   14.1383 N.2     1  UNL1       -0.0518
     29 C          63.5994   86.6849   15.5127 C.3     1  UNL1        0.3344
     30 C          63.7315   90.5956   16.1565 C.3     1  UNL1        0.2522
     31 O          63.9578   89.2581   15.5160 O.2     1  UNL1       -0.4709
     32 O          61.6903   88.9885    9.2518 O.3     1  UNL1       -0.4554
     33 C          60.2254   89.2217    9.0291 C.2     1  UNL1        0.3162
     34 O          59.4394   90.0430   10.0077 O.2     1  UNL1       -0.2501
     35 C          59.5464   88.6337    7.8278 C.3     1  UNL1        0.0991
     36 C          59.0201   87.2298    7.8759 C.3     1  UNL1        0.0116
     37 C          59.3936   89.4495    6.5783 C.3     1  UNL1        0.0116
@<TRIPOS>BOND
     1    30    31    1
     2    31    21    1
     3    21    22    2
     4    22    23    1
     5    23    24    2
     6    24    25    1
     7    25    26    2
     8    26    27    1
     9    27    20    1
    10    20    19    1
    11    19    18    1
    12    18    16    1
    13    16    17    1
    14    16    15    1
    15    15    14    1
    16     1    14    1
    17     1    32    1
    18    32    33    1
    19    33    34    2
    20    33    35    1
    21    35    36    1
    22    35    37    1
    23     1     2    1
    24     3     2    1
    25     3     4    1
    26     4     5    1
    27     5     6    1
    28     7     6    1
    29     7     8    1
    30     8     9   ar
    31     9    10   ar
    32    10    11   ar
    33    11    12   ar
    34    12    13   ar
    35    27    28    2
    36    28    29    1
    37    29    21    1
    38    29    25    1
    39     7     1    1
    40    13     8   ar
    41    13     3    1
@<TRIPOS>MOLECULE
*****
 37 41 0 0 0
SMALL
GASTEIGER

@<TRIPOS>ATOM
      1 C          62.4979   89.7235   10.9429 C.3     1  UNL1        0.1411
      2 C          62.7632   89.4204   12.3878 C.3     1  UNL1        0.0448
      3 C          63.7334   90.2602   13.1645 C.3     1  UNL1        0.0255
      4 C          63.3790   90.1688   12.3825 C.3     1  UNL1        0.0045
      5 C          62.9842   90.0430   11.5667 C.3     1  UNL1        0.0008
      6 C          63.0556   90.3960   10.9504 C.3     1  UNL1        0.0078
      7 C          63.2029   90.8665   10.2747 C.3     1  UNL1        0.0588
      8 C          64.1732   91.7064   11.0514 C.ar    1  UNL1       -0.0231
      9 C          64.8781   92.8494   10.3832 C.ar    1  UNL1       -0.0045
     10 C          65.8484   93.6893   11.1598 C.ar    1  UNL1       -0.0003
     11 C          66.1136   93.3861   12.6047 C.ar    1  UNL1       -0.0003
     12 C          65.4087   92.2431   13.2729 C.ar    1  UNL1       -0.0046
     13 C          64.4385   91.4033   12.4963 C.ar    1  UNL1       -0.0262
     14 C          61.5915   88.5435   11.1321 C.3     1  UNL1        0.0577
     15 C          62.1145   87.1540   10.9176 C.3     1  UNL1        0.0757
     16 N          61.7925   86.4188    9.6504 N.3     1  UNL1       -0.2714
     17 C          60.4044   85.9010    9.4158 C.3     1  UNL1        0.0896
     18 C          62.8586   86.2014    8.6179 C.3     1  UNL1        0.0728
     19 C          63.2093   84.8091    8.1835 C.3     1  UNL1        0.0303
     20 C          64.1440   83.9781    9.0116 C.3     1  UNL1        0.1247
     21 C          62.4027   83.1724   13.9769 C.2     1  UNL1        0.1731
     22 C          62.0273   81.9469   14.7559 C.2     1  UNL1        0.0374
     23 C          62.1168   80.5938   14.1147 C.2     1  UNL1        0.0065
     24 C          62.5817   80.4664   12.6942 C.2     1  UNL1        0.0470
     25 C          62.9570   81.6920   11.9151 C.2     1  UNL1        0.2269
     26 N          63.4461   81.8768   10.5092 N.2     1  UNL1       -0.0385
     27 C          63.6588   83.3441   10.2815 C.2     1  UNL1        0.3469
     28 N          63.3013   84.0661   11.5468 N.2     1  UNL1       -0.0518
     29 C          62.8676   83.0450   12.5564 C.3     1  UNL1        0.3344
     30 C          62.4193   84.6576   16.1086 C.3     1  UNL1        0.2522
     31 O          62.3133   84.5255   14.6181 O.2     1  UNL1       -0.4709
     32 O          61.9179   89.6169    9.5637 O.3     1  UNL1       -0.4554
     33 C          60.4473   89.8215    9.3507 C.2     1  UNL1        0.3162
     34 O          59.6461   90.6015   10.3505 O.2     1  UNL1       -0.2501
     35 C          59.7779   89.2463    8.1378 C.3     1  UNL1        0.0991
     36 C          59.8810   89.9524    6.8184 C.3     1  UNL1        0.0116
     37 C          59.0055   87.9649    8.2444 C.3     1  UNL1        0.0116
@<TRIPOS>BOND
     1    30    31    1
     2    31    21    1
     3    21    22    2
     4    22    23    1
     5    23    24    2
     6    24    25    1
     7    25    26    2
     8    26    27    1
     9    27    20    1
    10    20    19    1
    11    19    18    1
    12    18    16    1
    13    16    17    1
    14    16    15    1
    15    15    14    1
    16     1    14    1
    17     1    32    1
    18    32    33    1
    19    33    34    2
    20    33    35    1
    21    35    36    1
    22    35    37    1
    23     1     2    1
    24     3     2    1
    25     3     4    1
    26     4     5    1
    27     5     6    1
    28     7     6    1
    29     7     8    1
    30     8     9   ar
    31     9    10   ar
    32    10    11   ar
    33    11    12   ar
    34    12    13   ar
    35    27    28    2
    36    28    29    1
    37    29    21    1
    38    29    25    1
    39     7     1    1
    40    13     8   ar
    41    13     3    1
