@<TRIPOS>MOLECULE
*****
 39 41 0 0 0
SMALL
GASTEIGER

@<TRIPOS>ATOM
      1 N          64.4785   84.6249   13.8545 N.am    1  UNL1       -0.2874
      2 C          63.8682   85.0178   15.1671 C.2     1  UNL1        0.3040
      3 O          63.3969   83.9608   16.1214 O.2     1  UNL1       -0.2526
      4 N          63.7291   86.4678   15.5255 N.am    1  UNL1       -0.2641
      5 C          63.1187   86.8607   16.8381 C.3     1  UNL1        0.0949
      6 C          62.9797   88.3106   17.1964 C.3     1  UNL1        0.0217
      7 C          63.4510   89.3675   16.2421 C.3     1  UNL1        0.0062
      8 C          64.0613   88.9746   14.9295 C.3     1  UNL1        0.0514
      9 C          64.2004   87.5247   14.5712 C.3     1  UNL1        0.0977
     10 H          64.7879   85.3186   13.2282 H       1  UNL1        0.1510
     11 C          64.6176   83.1749   13.4961 C.3     1  UNL1        0.1065
     12 C          63.8248   82.6043   12.3578 C.3     1  UNL1        0.0740
     13 C          62.0101   81.5606   13.8963 C.3     1  UNL1        0.0859
     14 N          62.7943   81.5458   12.6178 N.3     1  UNL1       -0.2960
     15 H          62.1176   81.6004   11.8566 H       1  UNL1        0.1233
     16 C          64.0626   83.0922   10.9595 C.3     1  UNL1        0.0200
     17 C          63.2143   84.1930   10.3948 C.3     1  UNL1        0.0311
     18 C          63.3894   84.6174    8.9668 C.3     1  UNL1        0.0051
     19 C          62.5412   85.7181    8.4021 C.3     1  UNL1        0.0322
     20 C          61.5179   86.3944    9.2654 C.3     1  UNL1        0.1422
     21 O          61.3427   85.9700   10.6934 O.3     1  UNL1       -0.3538
     22 C          62.1910   84.8693   11.2581 C.3     1  UNL1        0.1421
     23 C          64.5326   90.0316   13.9752 C.3     1  UNL1        0.1391
     24 C          63.7494   90.3198   12.7288 C.ar    1  UNL1        0.0054
     25 C          64.3011   91.2580   11.6965 C.ar    1  UNL1       -0.0019
     26 C          63.5179   91.5462   10.4501 C.ar    1  UNL1        0.0006
     27 C          62.1830   90.8964   10.2360 C.ar    1  UNL1        0.0114
     28 C          61.6313   89.9584   11.2683 C.ar    1  UNL1        0.0574
     29 CL         60.2965   89.3086   11.0542 Cl      1  UNL1       -0.0823
     30 C          62.4145   89.6701   12.5147 C.ar    1  UNL1        0.0095
     31 O          65.7871   90.8003   14.2672 O.3     1  UNL1       -0.3500
     32 C          65.7028   92.2182   14.7493 C.3     1  UNL1        0.1638
     33 C          66.4526   93.3005   14.0307 C.3     1  UNL1        0.1247
     34 N          67.2373   92.9754   12.7943 N.am    1  UNL1       -0.2681
     35 C          66.8574   93.5926   11.4810 C.2     1  UNL1        0.4018
     36 O          65.6929   94.5350   11.4041 O.2     1  UNL1       -0.2264
     37 H          68.0016   92.3569   12.8448 H       1  UNL1        0.1528
     38 O          67.6421   93.2675   10.2447 O.3     1  UNL1       -0.4306
     39 C          67.9428   94.3427    9.2429 C.3     1  UNL1        0.2573
@<TRIPOS>BOND
     1    13    14    1
     2    14    12    1
     3    12    11    1
     4    11     1    1
     5     1     2   am
     6     2     3    2
     7     2     4   am
     8     4     5    1
     9     5     6    1
    10     6     7    1
    11     8     7    1
    12     8    23    1
    13    23    31    1
    14    31    32    1
    15    32    33    1
    16    33    34    1
    17    34    35   am
    18    35    36    2
    19    35    38    1
    20    38    39    1
    21    23    24    1
    22    24    25   ar
    23    25    26   ar
    24    26    27   ar
    25    27    28   ar
    26    28    29    1
    27    28    30   ar
    28     8     9    1
    29    12    16    1
    30    17    16    1
    31    17    18    1
    32    18    19    1
    33    19    20    1
    34    20    21    1
    35    21    22    1
    36     9     4    1
    37    22    17    1
    38    30    24   ar
    39    14    15    1
    40     1    10    1
    41    34    37    1
@<TRIPOS>MOLECULE
*****
 39 41 0 0 0
SMALL
GASTEIGER

@<TRIPOS>ATOM
      1 N          64.6066   85.0304   14.3056 N.am    1  UNL1       -0.2874
      2 C          63.9808   85.6020   15.5431 C.2     1  UNL1        0.3040
      3 O          63.5680   84.6936   16.6630 O.2     1  UNL1       -0.2526
      4 N          63.7678   87.0822   15.6607 N.am    1  UNL1       -0.2641
      5 C          63.1420   87.6539   16.8982 C.3     1  UNL1        0.0949
      6 C          62.9290   89.1340   17.0158 C.3     1  UNL1        0.0217
      7 C          63.3418   90.0424   15.8959 C.3     1  UNL1        0.0062
      8 C          63.9676   89.4707   14.6583 C.3     1  UNL1        0.0514
      9 C          64.1806   87.9906   14.5408 C.3     1  UNL1        0.0977
     10 H          64.8776   85.6266   13.5705 H       1  UNL1        0.1510
     11 C          64.8196   83.5502   14.1880 C.3     1  UNL1        0.1065
     12 C          63.6998   82.6657   13.7257 C.3     1  UNL1        0.0740
     13 C          61.5411   81.3178   14.2484 C.3     1  UNL1        0.0859
     14 N          62.7278   82.1044   14.7207 N.3     1  UNL1       -0.2960
     15 H          63.2599   81.4919   15.3389 H       1  UNL1        0.1233
     16 C          63.5521   82.3425   12.2684 C.3     1  UNL1        0.0200
     17 C          63.2399   83.4325   11.2863 C.3     1  UNL1        0.0311
     18 C          63.8148   83.3819    9.9018 C.3     1  UNL1        0.0051
     19 C          63.5026   84.4718    8.9197 C.3     1  UNL1        0.0322
     20 C          62.6155   85.6124    9.3222 C.3     1  UNL1        0.1422
     21 O          62.0406   85.6631   10.7067 O.3     1  UNL1       -0.3538
     22 C          62.3528   84.5731   11.6888 C.3     1  UNL1        0.1421
     23 C          64.3804   90.3792   13.5384 C.3     1  UNL1        0.1391
     24 C          65.4103   91.4434   13.7767 C.ar    1  UNL1        0.0054
     25 C          65.4706   92.6433   12.8786 C.ar    1  UNL1       -0.0019
     26 C          66.5005   93.7075   13.1169 C.ar    1  UNL1        0.0006
     27 C          67.4700   93.5719   14.2534 C.ar    1  UNL1        0.0114
     28 C          67.4098   92.3720   15.1515 C.ar    1  UNL1        0.0574
     29 CL         68.3793   92.2363   16.2879 Cl      1  UNL1       -0.0823
     30 C          66.3799   91.3077   14.9132 C.ar    1  UNL1        0.0095
     31 O          63.7634   90.2235   12.1801 O.3     1  UNL1       -0.3500
     32 C          62.2745   90.3068   12.0187 C.3     1  UNL1        0.1638
     33 C          61.6438   89.9796   10.6975 C.3     1  UNL1        0.1247
     34 N          60.9602   88.6593   10.4993 N.am    1  UNL1       -0.2681
     35 C          60.2153   88.3840    9.2268 C.2     1  UNL1        0.4018
     36 O          60.1539   89.4291    8.1525 O.2     1  UNL1       -0.2264
     37 H          61.0005   87.9733   11.2043 H       1  UNL1        0.1528
     38 O          59.5317   87.0636    9.0286 O.3     1  UNL1       -0.4306
     39 C          58.9503   86.7134    7.6908 C.3     1  UNL1        0.2573
@<TRIPOS>BOND
     1    13    14    1
     2    14    12    1
     3    12    11    1
     4    11     1    1
     5     1     2   am
     6     2     3    2
     7     2     4   am
     8     4     5    1
     9     5     6    1
    10     6     7    1
    11     8     7    1
    12     8    23    1
    13    23    31    1
    14    31    32    1
    15    32    33    1
    16    33    34    1
    17    34    35   am
    18    35    36    2
    19    35    38    1
    20    38    39    1
    21    23    24    1
    22    24    25   ar
    23    25    26   ar
    24    26    27   ar
    25    27    28   ar
    26    28    29    1
    27    28    30   ar
    28     8     9    1
    29    12    16    1
    30    17    16    1
    31    17    18    1
    32    18    19    1
    33    19    20    1
    34    20    21    1
    35    21    22    1
    36     9     4    1
    37    22    17    1
    38    30    24   ar
    39    14    15    1
    40     1    10    1
    41    34    37    1
@<TRIPOS>MOLECULE
*****
 39 41 0 0 0
SMALL
GASTEIGER

@<TRIPOS>ATOM
      1 N          62.3815   84.8936   14.1956 N.am    1  UNL1       -0.2874
      2 C          63.2003   84.0865   13.2323 C.2     1  UNL1        0.3040
      3 O          64.1321   83.0279   13.7435 O.2     1  UNL1       -0.2526
      4 N          63.0873   84.3378   11.7578 N.am    1  UNL1       -0.2641
      5 C          63.9061   83.5306   10.7945 C.3     1  UNL1        0.0949
      6 C          63.7931   83.7819    9.3201 C.3     1  UNL1        0.0217
      7 C          62.8613   84.8404    8.8089 C.3     1  UNL1        0.0062
      8 C          62.0425   85.6476    9.7722 C.3     1  UNL1        0.0514
      9 C          62.1555   85.3963   11.2466 C.3     1  UNL1        0.0977
     10 H          61.7699   85.5884   13.8601 H       1  UNL1        0.1510
     11 C          62.4945   84.6423   15.6701 C.3     1  UNL1        0.1065
     12 C          62.8797   85.7595   16.5940 C.3     1  UNL1        0.0740
     13 C          62.6727   86.8415   18.9470 C.3     1  UNL1        0.0859
     14 N          62.0935   86.0000   17.8486 N.3     1  UNL1       -0.2960
     15 H          61.2191   86.4438   17.5677 H       1  UNL1        0.1233
     16 C          64.0510   86.6361   16.2632 C.3     1  UNL1        0.0200
     17 C          63.8346   87.9431   15.5597 C.3     1  UNL1        0.0311
     18 C          64.1699   88.0756   14.1036 C.3     1  UNL1        0.0051
     19 C          63.9536   89.3825   13.4001 C.3     1  UNL1        0.0322
     20 C          63.4019   90.5570   14.1525 C.3     1  UNL1        0.1422
     21 O          63.0666   90.4246   15.6085 O.3     1  UNL1       -0.3538
     22 C          63.2830   89.1176   16.3121 C.3     1  UNL1        0.1421
     23 C          61.1107   86.7061    9.2611 C.3     1  UNL1        0.1391
     24 C          61.0489   88.0423    9.9398 C.ar    1  UNL1        0.0054
     25 C          59.9066   88.3657   10.8567 C.ar    1  UNL1       -0.0019
     26 C          59.8448   89.7019   11.5355 C.ar    1  UNL1        0.0006
     27 C          60.9253   90.7147   11.2973 C.ar    1  UNL1        0.0114
     28 C          62.0675   90.3914   10.3804 C.ar    1  UNL1        0.0574
     29 CL         63.1480   91.4043   10.1423 Cl      1  UNL1       -0.0823
     30 C          62.1294   89.0552    9.7016 C.ar    1  UNL1        0.0095
     31 O          60.2406   86.4284    8.0712 O.3     1  UNL1       -0.3500
     32 C          59.1849   87.4146    7.6675 C.3     1  UNL1        0.1638
     33 C          59.5797   88.7418    7.0905 C.3     1  UNL1        0.1247
     34 N          58.5739   89.5615    6.3379 N.am    1  UNL1       -0.2681
     35 C          59.0330   90.6644    5.4309 C.2     1  UNL1        0.4018
     36 O          60.4979   90.9478    5.2765 O.2     1  UNL1       -0.2264
     37 H          57.6125   89.3755    6.4392 H       1  UNL1        0.1528
     38 O          58.0272   91.4841    4.6782 O.3     1  UNL1       -0.4306
     39 C          56.5656   91.3456    4.9859 C.3     1  UNL1        0.2573
@<TRIPOS>BOND
     1    13    14    1
     2    14    12    1
     3    12    11    1
     4    11     1    1
     5     1     2   am
     6     2     3    2
     7     2     4   am
     8     4     5    1
     9     5     6    1
    10     6     7    1
    11     8     7    1
    12     8    23    1
    13    23    31    1
    14    31    32    1
    15    32    33    1
    16    33    34    1
    17    34    35   am
    18    35    36    2
    19    35    38    1
    20    38    39    1
    21    23    24    1
    22    24    25   ar
    23    25    26   ar
    24    26    27   ar
    25    27    28   ar
    26    28    29    1
    27    28    30   ar
    28     8     9    1
    29    12    16    1
    30    17    16    1
    31    17    18    1
    32    18    19    1
    33    19    20    1
    34    20    21    1
    35    21    22    1
    36     9     4    1
    37    22    17    1
    38    30    24   ar
    39    14    15    1
    40     1    10    1
    41    34    37    1
@<TRIPOS>MOLECULE
*****
 39 41 0 0 0
SMALL
GASTEIGER

@<TRIPOS>ATOM
      1 N          61.3941   87.8611   11.0645 N.am    1  UNL1       -0.2874
      2 C          61.8356   89.0963   10.3370 C.2     1  UNL1        0.3040
      3 O          61.3594   89.3533    8.9380 O.2     1  UNL1       -0.2526
      4 N          62.7533   90.0746   11.0085 N.am    1  UNL1       -0.2641
      5 C          63.1948   91.3098   10.2810 C.3     1  UNL1        0.0949
      6 C          64.1124   92.2881   10.9525 C.3     1  UNL1        0.0217
      7 C          64.5886   92.0310   12.3515 C.3     1  UNL1        0.0062
      8 C          64.1471   90.7958   13.0790 C.3     1  UNL1        0.0514
      9 C          63.2295   89.8176   12.4075 C.3     1  UNL1        0.0977
     10 H          61.7067   87.6924   11.9827 H       1  UNL1        0.1510
     11 C          60.4764   86.8828   10.3930 C.3     1  UNL1        0.1065
     12 C          60.9442   86.1205    9.1888 C.3     1  UNL1        0.0740
     13 C          58.9379   86.8385    7.7025 C.3     1  UNL1        0.0859
     14 N          59.9921   85.8351    8.0654 N.3     1  UNL1       -0.2960
     15 H          60.5583   85.6877    7.2299 H       1  UNL1        0.1233
     16 C          62.3641   85.6437    9.1081 C.3     1  UNL1        0.0200
     17 C          62.8739   84.6354   10.0947 C.3     1  UNL1        0.0311
     18 C          63.8797   83.6085    9.6658 C.3     1  UNL1        0.0051
     19 C          64.3895   82.6003   10.6524 C.3     1  UNL1        0.0322
     20 C          63.8936   82.6189   12.0679 C.3     1  UNL1        0.1422
     21 O          62.8879   83.6458   12.4968 O.3     1  UNL1       -0.3538
     22 C          62.3780   84.6541   11.5102 C.3     1  UNL1        0.1421
     23 C          64.6233   90.5388   14.4780 C.3     1  UNL1        0.1391
     24 C          64.1831   89.3028   15.2049 C.ar    1  UNL1        0.0054
     25 C          63.3447   89.4196   16.4433 C.ar    1  UNL1       -0.0019
     26 C          62.9045   88.1836   17.1703 C.ar    1  UNL1        0.0006
     27 C          63.3026   86.8308   16.6588 C.ar    1  UNL1        0.0114
     28 C          64.1409   86.7140   15.4205 C.ar    1  UNL1        0.0574
     29 CL         64.5390   85.3613   14.9091 Cl      1  UNL1       -0.0823
     30 C          64.5812   87.9501   14.6935 C.ar    1  UNL1        0.0095
     31 O          65.5397   91.5178   15.1501 O.3     1  UNL1       -0.3500
     32 C          67.0255   91.3840   14.9931 C.3     1  UNL1        0.1638
     33 C          67.7542   92.2363   13.9967 C.3     1  UNL1        0.1247
     34 N          68.1631   91.6599   12.6737 N.am    1  UNL1       -0.2681
     35 C          67.8908   92.4186   11.4087 C.2     1  UNL1        0.4018
     36 O          67.2094   93.7537   11.4667 O.2     1  UNL1       -0.2264
     37 H          68.6103   90.7837   12.6355 H       1  UNL1        0.1528
     38 O          68.2998   91.8422   10.0856 O.3     1  UNL1       -0.4306
     39 C          68.6564   92.7533    8.9486 C.3     1  UNL1        0.2573
@<TRIPOS>BOND
     1    13    14    1
     2    14    12    1
     3    12    11    1
     4    11     1    1
     5     1     2   am
     6     2     3    2
     7     2     4   am
     8     4     5    1
     9     5     6    1
    10     6     7    1
    11     8     7    1
    12     8    23    1
    13    23    31    1
    14    31    32    1
    15    32    33    1
    16    33    34    1
    17    34    35   am
    18    35    36    2
    19    35    38    1
    20    38    39    1
    21    23    24    1
    22    24    25   ar
    23    25    26   ar
    24    26    27   ar
    25    27    28   ar
    26    28    29    1
    27    28    30   ar
    28     8     9    1
    29    12    16    1
    30    17    16    1
    31    17    18    1
    32    18    19    1
    33    19    20    1
    34    20    21    1
    35    21    22    1
    36     9     4    1
    37    22    17    1
    38    30    24   ar
    39    14    15    1
    40     1    10    1
    41    34    37    1
@<TRIPOS>MOLECULE
*****
 39 41 0 0 0
SMALL
GASTEIGER

@<TRIPOS>ATOM
      1 N          62.4948   86.3468   10.9496 N.am    1  UNL1       -0.2874
      2 C          62.3654   87.6710   10.2570 C.2     1  UNL1        0.3040
      3 O          61.8357   87.7357    8.8551 O.2     1  UNL1       -0.2526
      4 N          62.7657   88.9307   10.9663 N.am    1  UNL1       -0.2641
      5 C          62.6363   90.2549   10.2737 C.3     1  UNL1        0.0949
      6 C          63.0366   91.5145   10.9831 C.3     1  UNL1        0.0217
      7 C          63.5662   91.4499   12.3850 C.3     1  UNL1        0.0062
      8 C          63.6956   90.1257   13.0775 C.3     1  UNL1        0.0514
      9 C          63.2953   88.8661   12.3682 C.3     1  UNL1        0.0977
     10 H          62.8424   86.3044   11.8697 H       1  UNL1        0.1510
     11 C          62.0945   85.0872   10.2403 C.3     1  UNL1        0.1065
     12 C          63.0065   84.4816    9.2149 C.3     1  UNL1        0.0740
     13 C          61.7401   84.7539    6.9628 C.3     1  UNL1        0.0859
     14 N          62.9685   84.9682    7.7965 N.3     1  UNL1       -0.2960
     15 H          63.1325   85.9744    7.8259 H       1  UNL1        0.1233
     16 C          63.9566   83.3895    9.6079 C.3     1  UNL1        0.0200
     17 C          63.7768   82.6726   10.9133 C.3     1  UNL1        0.0311
     18 C          62.9666   81.4116   10.9709 C.3     1  UNL1        0.0051
     19 C          62.7867   80.6947   12.2762 C.3     1  UNL1        0.0322
     20 C          63.4170   81.2389   13.5238 C.3     1  UNL1        0.1422
     21 O          64.2272   82.5000   13.4661 O.3     1  UNL1       -0.3538
     22 C          64.4071   83.2168   12.1609 C.3     1  UNL1        0.1421
     23 C          64.2252   90.0611   14.4794 C.3     1  UNL1        0.1391
     24 C          63.9059   88.8807   15.3482 C.ar    1  UNL1        0.0054
     25 C          63.1592   89.0763   16.6344 C.ar    1  UNL1       -0.0019
     26 C          62.8398   87.8960   17.5032 C.ar    1  UNL1        0.0006
     27 C          63.2671   86.5201   17.0858 C.ar    1  UNL1        0.0114
     28 C          64.0137   86.3244   15.7996 C.ar    1  UNL1        0.0574
     29 CL         64.4409   84.9485   15.3822 Cl      1  UNL1       -0.0823
     30 C          64.3331   87.5048   14.9308 C.ar    1  UNL1        0.0095
     31 O          65.0743   91.1768   15.0126 O.3     1  UNL1       -0.3500
     32 C          66.4858   91.3405   14.5322 C.3     1  UNL1        0.1638
     33 C          66.8658   92.5398   13.7153 C.3     1  UNL1        0.1247
     34 N          67.3483   92.3648   12.3058 N.am    1  UNL1       -0.2681
     35 C          66.7481   93.1823   11.2007 C.2     1  UNL1        0.4018
     36 O          65.6652   94.1747   11.5049 O.2     1  UNL1       -0.2264
     37 H          68.0591   91.7135   12.1062 H       1  UNL1        0.1528
     38 O          67.2307   93.0073    9.7912 O.3     1  UNL1       -0.4306
     39 C          68.5031   92.2600    9.5214 C.3     1  UNL1        0.2573
@<TRIPOS>BOND
     1    13    14    1
     2    14    12    1
     3    12    11    1
     4    11     1    1
     5     1     2   am
     6     2     3    2
     7     2     4   am
     8     4     5    1
     9     5     6    1
    10     6     7    1
    11     8     7    1
    12     8    23    1
    13    23    31    1
    14    31    32    1
    15    32    33    1
    16    33    34    1
    17    34    35   am
    18    35    36    2
    19    35    38    1
    20    38    39    1
    21    23    24    1
    22    24    25   ar
    23    25    26   ar
    24    26    27   ar
    25    27    28   ar
    26    28    29    1
    27    28    30   ar
    28     8     9    1
    29    12    16    1
    30    17    16    1
    31    17    18    1
    32    18    19    1
    33    19    20    1
    34    20    21    1
    35    21    22    1
    36     9     4    1
    37    22    17    1
    38    30    24   ar
    39    14    15    1
    40     1    10    1
    41    34    37    1
@<TRIPOS>MOLECULE
*****
 39 41 0 0 0
SMALL
GASTEIGER

@<TRIPOS>ATOM
      1 N          64.2852   87.7650   14.0378 N.am    1  UNL1       -0.2874
      2 C          63.3768   87.8931   12.8511 C.2     1  UNL1        0.3040
      3 O          62.4462   86.7720   12.4943 O.2     1  UNL1       -0.2526
      4 N          63.3989   89.1424   12.0210 N.am    1  UNL1       -0.2641
      5 C          62.4905   89.2705   10.8343 C.3     1  UNL1        0.0949
      6 C          62.5127   90.5197   10.0043 C.3     1  UNL1        0.0217
      7 C          63.4433   91.6408   10.3610 C.3     1  UNL1        0.0062
      8 C          64.3517   91.5126   11.5477 C.3     1  UNL1        0.0514
      9 C          64.3295   90.2634   12.3777 C.3     1  UNL1        0.0977
     10 H          64.8960   88.5008   14.2719 H       1  UNL1        0.1510
     11 C          64.2631   86.5157   14.8679 C.3     1  UNL1        0.1065
     12 C          63.8124   85.2200   14.2612 C.3     1  UNL1        0.0740
     13 C          61.9476   84.0326   15.6258 C.3     1  UNL1        0.0859
     14 N          62.3847   84.7823   14.4024 N.3     1  UNL1       -0.2960
     15 H          61.8121   85.6249   14.3532 H       1  UNL1        0.1233
     16 C          64.7894   84.3621   13.5133 C.3     1  UNL1        0.0200
     17 C          64.2924   83.2862   12.5938 C.3     1  UNL1        0.0311
     18 C          64.4034   83.4592   11.1080 C.3     1  UNL1        0.0051
     19 C          63.9064   82.3834   10.1885 C.3     1  UNL1        0.0322
     20 C          63.2984   81.1346   10.7548 C.3     1  UNL1        0.1422
     21 O          63.1874   80.9616   12.2407 O.3     1  UNL1       -0.3538
     22 C          63.6844   82.0374   13.1602 C.3     1  UNL1        0.1421
     23 C          65.2823   92.6337   11.9044 C.3     1  UNL1        0.1391
     24 C          66.2719   93.1367   10.8957 C.ar    1  UNL1        0.0054
     25 C          67.3403   92.2227   10.3729 C.ar    1  UNL1       -0.0019
     26 C          68.3300   92.7256    9.3642 C.ar    1  UNL1        0.0006
     27 C          68.2514   94.1426    8.8783 C.ar    1  UNL1        0.0114
     28 C          67.1831   95.0565    9.4011 C.ar    1  UNL1        0.0574
     29 CL         67.1044   96.4735    8.9151 Cl      1  UNL1       -0.0823
     30 C          66.1933   94.5536   10.4098 C.ar    1  UNL1        0.0095
     31 O          65.2232   93.2518   13.2698 O.3     1  UNL1       -0.3500
     32 C          66.3905   93.1223   14.2029 C.3     1  UNL1        0.1638
     33 C          66.3760   92.0807   15.2822 C.3     1  UNL1        0.1247
     34 N          65.3686   90.9701   15.2392 N.am    1  UNL1       -0.2681
     35 C          64.0415   91.1347   15.9188 C.2     1  UNL1        0.4018
     36 O          63.7218   92.4097   16.6413 O.2     1  UNL1       -0.2264
     37 H          65.5784   90.1333   14.7650 H       1  UNL1        0.1528
     38 O          63.0341   90.0241   15.8758 O.3     1  UNL1       -0.4306
     39 C          63.0181   88.9838   16.9564 C.3     1  UNL1        0.2573
@<TRIPOS>BOND
     1    13    14    1
     2    14    12    1
     3    12    11    1
     4    11     1    1
     5     1     2   am
     6     2     3    2
     7     2     4   am
     8     4     5    1
     9     5     6    1
    10     6     7    1
    11     8     7    1
    12     8    23    1
    13    23    31    1
    14    31    32    1
    15    32    33    1
    16    33    34    1
    17    34    35   am
    18    35    36    2
    19    35    38    1
    20    38    39    1
    21    23    24    1
    22    24    25   ar
    23    25    26   ar
    24    26    27   ar
    25    27    28   ar
    26    28    29    1
    27    28    30   ar
    28     8     9    1
    29    12    16    1
    30    17    16    1
    31    17    18    1
    32    18    19    1
    33    19    20    1
    34    20    21    1
    35    21    22    1
    36     9     4    1
    37    22    17    1
    38    30    24   ar
    39    14    15    1
    40     1    10    1
    41    34    37    1
@<TRIPOS>MOLECULE
*****
 39 41 0 0 0
SMALL
GASTEIGER

@<TRIPOS>ATOM
      1 N          62.2972   84.7566   13.4353 N.am    1  UNL1       -0.2874
      2 C          63.0046   84.0677   12.3062 C.2     1  UNL1        0.3040
      3 O          63.9192   82.9126   12.5875 O.2     1  UNL1       -0.2526
      4 N          62.7975   84.5341   10.8956 N.am    1  UNL1       -0.2641
      5 C          63.5049   83.8453    9.7664 C.3     1  UNL1        0.0949
      6 C          63.2978   84.3116    8.3559 C.3     1  UNL1        0.0217
      7 C          62.3832   85.4668    8.0746 C.3     1  UNL1        0.0062
      8 C          61.6758   86.1556    9.2037 C.3     1  UNL1        0.0514
      9 C          61.8829   85.6892   10.6142 C.3     1  UNL1        0.0977
     10 H          61.6969   85.5147   13.2506 H       1  UNL1        0.1510
     11 C          62.5043   84.2902   14.8459 C.3     1  UNL1        0.1065
     12 C          63.6758   84.7917   15.6372 C.3     1  UNL1        0.0740
     13 C          66.0543   84.8387   14.5931 C.3     1  UNL1        0.0859
     14 N          65.0270   84.1664   15.4548 N.3     1  UNL1       -0.2960
     15 H          65.4369   84.0746   16.3843 H       1  UNL1        0.1233
     16 C          63.4960   85.9183   16.6110 C.3     1  UNL1        0.0200
     17 C          63.5875   87.3393   16.1391 C.3     1  UNL1        0.0311
     18 C          64.2306   87.6517   14.8205 C.3     1  UNL1        0.0051
     19 C          64.3221   89.0726   14.3486 C.3     1  UNL1        0.0322
     20 C          63.7704   90.1810   15.1954 C.3     1  UNL1        0.1422
     21 O          63.1273   89.8686   16.5140 O.3     1  UNL1       -0.3538
     22 C          63.0358   88.4477   16.9858 C.3     1  UNL1        0.1421
     23 C          60.7612   87.3107    8.9224 C.3     1  UNL1        0.1391
     24 C          60.9327   88.6017    9.6667 C.ar    1  UNL1        0.0054
     25 C          62.2891   89.2339    9.7693 C.ar    1  UNL1       -0.0019
     26 C          62.4605   90.5248   10.5136 C.ar    1  UNL1        0.0006
     27 C          61.2756   91.1836   11.1554 C.ar    1  UNL1        0.0114
     28 C          59.9192   90.5515   11.0528 C.ar    1  UNL1        0.0574
     29 CL         58.7342   91.2103   11.6946 Cl      1  UNL1       -0.0823
     30 C          59.7477   89.2605   10.3085 C.ar    1  UNL1        0.0095
     31 O          59.6752   87.1750    7.8967 O.3     1  UNL1       -0.3500
     32 C          59.6848   88.0446    6.6745 C.3     1  UNL1        0.1638
     33 C          58.9244   89.3376    6.6681 C.3     1  UNL1        0.1247
     34 N          59.5112   90.5495    6.0071 N.am    1  UNL1       -0.2681
     35 C          58.6225   91.5043    5.2666 C.2     1  UNL1        0.4018
     36 O          57.1468   91.2471    5.1868 O.2     1  UNL1       -0.2264
     37 H          60.4797   90.7183    6.0595 H       1  UNL1        0.1528
     38 O          59.2093   92.7162    4.6056 O.3     1  UNL1       -0.4306
     39 C          59.5359   92.6881    3.1418 C.3     1  UNL1        0.2573
@<TRIPOS>BOND
     1    13    14    1
     2    14    12    1
     3    12    11    1
     4    11     1    1
     5     1     2   am
     6     2     3    2
     7     2     4   am
     8     4     5    1
     9     5     6    1
    10     6     7    1
    11     8     7    1
    12     8    23    1
    13    23    31    1
    14    31    32    1
    15    32    33    1
    16    33    34    1
    17    34    35   am
    18    35    36    2
    19    35    38    1
    20    38    39    1
    21    23    24    1
    22    24    25   ar
    23    25    26   ar
    24    26    27   ar
    25    27    28   ar
    26    28    29    1
    27    28    30   ar
    28     8     9    1
    29    12    16    1
    30    17    16    1
    31    17    18    1
    32    18    19    1
    33    19    20    1
    34    20    21    1
    35    21    22    1
    36     9     4    1
    37    22    17    1
    38    30    24   ar
    39    14    15    1
    40     1    10    1
    41    34    37    1
@<TRIPOS>MOLECULE
*****
 39 41 0 0 0
SMALL
GASTEIGER

@<TRIPOS>ATOM
      1 N          63.6516   87.3273   13.4304 N.am    1  UNL1       -0.2874
      2 C          62.8247   87.6019   12.2095 C.2     1  UNL1        0.3040
      3 O          61.8896   86.5527   11.6854 O.2     1  UNL1       -0.2526
      4 N          62.9328   88.9258   11.5125 N.am    1  UNL1       -0.2641
      5 C          62.1059   89.2004   10.2916 C.3     1  UNL1        0.0949
      6 C          62.2140   90.5243    9.5947 C.3     1  UNL1        0.0217
      7 C          63.1492   91.5735   10.1188 C.3     1  UNL1        0.0062
      8 C          63.9761   91.2989   11.3397 C.3     1  UNL1        0.0514
      9 C          63.8680   89.9751   12.0366 C.3     1  UNL1        0.0977
     10 H          64.2654   88.0160   13.7743 H       1  UNL1        0.1510
     11 C          63.5435   86.0034   14.1273 C.3     1  UNL1        0.1065
     12 C          64.2889   84.8141   13.5981 C.3     1  UNL1        0.0740
     13 C          66.3842   85.4415   15.0002 C.3     1  UNL1        0.0859
     14 N          65.6210   84.4441   14.1801 N.3     1  UNL1       -0.2960
     15 H          65.4665   83.6302   14.7751 H       1  UNL1        0.1233
     16 C          63.7022   83.9949   12.4870 C.3     1  UNL1        0.0200
     17 C          63.0966   82.6547   12.7824 C.3     1  UNL1        0.0311
     18 C          62.2919   82.4544   14.0324 C.3     1  UNL1        0.0051
     19 C          61.6863   81.1143   14.3278 C.3     1  UNL1        0.0322
     20 C          61.8855   79.9745   13.3733 C.3     1  UNL1        0.1422
     21 O          62.6901   80.1748   12.1233 O.3     1  UNL1       -0.3538
     22 C          63.2957   81.5149   11.8279 C.3     1  UNL1        0.1421
     23 C          64.9113   92.3481   11.8637 C.3     1  UNL1        0.1391
     24 C          65.8636   93.0370   10.9318 C.ar    1  UNL1        0.0054
     25 C          65.7014   94.4995   10.6400 C.ar    1  UNL1       -0.0019
     26 C          66.6538   95.1883    9.7081 C.ar    1  UNL1        0.0006
     27 C          67.7683   94.4149    9.0680 C.ar    1  UNL1        0.0114
     28 C          67.9304   92.9526    9.3599 C.ar    1  UNL1        0.0574
     29 CL         69.0449   92.1791    8.7198 Cl      1  UNL1       -0.0823
     30 C          66.9781   92.2636   10.2918 C.ar    1  UNL1        0.0095
     31 O          64.8941   92.7085   13.3197 O.3     1  UNL1       -0.3500
     32 C          66.1312   92.5350   14.1499 C.3     1  UNL1        0.1638
     33 C          66.2963   91.3126   15.0035 C.3     1  UNL1        0.1247
     34 N          65.1927   90.2999   15.0847 N.am    1  UNL1       -0.2681
     35 C          63.9278   90.6266   15.8216 C.2     1  UNL1        0.4018
     36 O          63.7664   91.9660   16.4775 O.2     1  UNL1       -0.2264
     37 H          65.2986   89.4208   14.6542 H       1  UNL1        0.1528
     38 O          62.8241   89.6140   15.9028 O.3     1  UNL1       -0.4306
     39 C          62.9445   88.4468   16.8374 C.3     1  UNL1        0.2573
@<TRIPOS>BOND
     1    13    14    1
     2    14    12    1
     3    12    11    1
     4    11     1    1
     5     1     2   am
     6     2     3    2
     7     2     4   am
     8     4     5    1
     9     5     6    1
    10     6     7    1
    11     8     7    1
    12     8    23    1
    13    23    31    1
    14    31    32    1
    15    32    33    1
    16    33    34    1
    17    34    35   am
    18    35    36    2
    19    35    38    1
    20    38    39    1
    21    23    24    1
    22    24    25   ar
    23    25    26   ar
    24    26    27   ar
    25    27    28   ar
    26    28    29    1
    27    28    30   ar
    28     8     9    1
    29    12    16    1
    30    17    16    1
    31    17    18    1
    32    18    19    1
    33    19    20    1
    34    20    21    1
    35    21    22    1
    36     9     4    1
    37    22    17    1
    38    30    24   ar
    39    14    15    1
    40     1    10    1
    41    34    37    1
@<TRIPOS>MOLECULE
*****
 39 41 0 0 0
SMALL
GASTEIGER

@<TRIPOS>ATOM
      1 N          64.6435   85.3553   13.7458 N.am    1  UNL1       -0.2874
      2 C          64.0139   85.5671   15.0907 C.2     1  UNL1        0.3040
      3 O          63.6280   84.3870   15.9323 O.2     1  UNL1       -0.2526
      4 N          63.7702   86.9590   15.5940 N.am    1  UNL1       -0.2641
      5 C          63.1406   87.1708   16.9388 C.3     1  UNL1        0.0949
      6 C          62.8970   88.5627   17.4420 C.3     1  UNL1        0.0217
      7 C          63.2829   89.7428   16.6004 C.3     1  UNL1        0.0062
      8 C          63.9125   89.5310   15.2555 C.3     1  UNL1        0.0514
      9 C          64.1562   88.1391   14.7523 C.3     1  UNL1        0.0977
     10 H          64.8968   86.1299   13.1934 H       1  UNL1        0.1510
     11 C          64.8871   83.9634   13.2425 C.3     1  UNL1        0.1065
     12 C          64.0252   83.3983   12.1528 C.3     1  UNL1        0.0740
     13 C          63.6809   81.3818   10.5511 C.3     1  UNL1        0.0859
     14 N          64.5877   82.3842   11.2013 N.3     1  UNL1       -0.2960
     15 H          65.0388   82.9048   10.4490 H       1  UNL1        0.1233
     16 C          62.6007   83.8472   12.0144 C.3     1  UNL1        0.0200
     17 C          62.2527   84.9575   11.0676 C.3     1  UNL1        0.0311
     18 C          61.3656   86.0790   11.5206 C.3     1  UNL1        0.0051
     19 C          61.0176   87.1892   10.5738 C.3     1  UNL1        0.0322
     20 C          61.5569   87.1779    9.1742 C.3     1  UNL1        0.1422
     21 O          62.4440   86.0564    8.7213 O.3     1  UNL1       -0.3538
     22 C          62.7920   84.9462    9.6680 C.3     1  UNL1        0.1421
     23 C          64.2984   90.7111   14.4138 C.3     1  UNL1        0.1391
     24 C          65.5929   91.4242   14.6705 C.ar    1  UNL1        0.0054
     25 C          65.7538   92.2669   15.9009 C.ar    1  UNL1       -0.0019
     26 C          67.0483   92.9800   16.1576 C.ar    1  UNL1        0.0006
     27 C          68.1819   92.8502   15.1839 C.ar    1  UNL1        0.0114
     28 C          68.0210   92.0075   13.9535 C.ar    1  UNL1        0.0574
     29 CL         69.1546   91.8778   12.9797 Cl      1  UNL1       -0.0823
     30 C          66.7265   91.2944   13.6968 C.ar    1  UNL1        0.0095
     31 O          63.3899   91.1782   13.3155 O.3     1  UNL1       -0.3500
     32 C          63.7827   90.9790   11.8816 C.3     1  UNL1        0.1638
     33 C          64.2074   92.1531   11.0502 C.3     1  UNL1        0.1247
     34 N          65.6416   92.2989   10.6357 N.am    1  UNL1       -0.2681
     35 C          66.2304   93.6645   10.4393 C.2     1  UNL1        0.4018
     36 O          65.3850   94.8842   10.6573 O.2     1  UNL1       -0.2264
     37 H          66.1965   91.4984   10.4927 H       1  UNL1        0.1528
     38 O          67.6646   93.8103   10.0248 O.3     1  UNL1       -0.4306
     39 C          68.0063   94.4910    8.7325 C.3     1  UNL1        0.2573
@<TRIPOS>BOND
     1    13    14    1
     2    14    12    1
     3    12    11    1
     4    11     1    1
     5     1     2   am
     6     2     3    2
     7     2     4   am
     8     4     5    1
     9     5     6    1
    10     6     7    1
    11     8     7    1
    12     8    23    1
    13    23    31    1
    14    31    32    1
    15    32    33    1
    16    33    34    1
    17    34    35   am
    18    35    36    2
    19    35    38    1
    20    38    39    1
    21    23    24    1
    22    24    25   ar
    23    25    26   ar
    24    26    27   ar
    25    27    28   ar
    26    28    29    1
    27    28    30   ar
    28     8     9    1
    29    12    16    1
    30    17    16    1
    31    17    18    1
    32    18    19    1
    33    19    20    1
    34    20    21    1
    35    21    22    1
    36     9     4    1
    37    22    17    1
    38    30    24   ar
    39    14    15    1
    40     1    10    1
    41    34    37    1
