@<TRIPOS>MOLECULE
*****
 21 23 0 0 0
SMALL
GASTEIGER

@<TRIPOS>ATOM
      1 C          63.5144   85.6534   13.1061 C.ar    1  UNL1       -0.0144
      2 C          63.0197   84.4422   12.3724 C.ar    1  UNL1        0.0051
      3 S          62.3118   84.9073   11.1344 S.2     1  UNL1       -0.0915
      4 C          62.3690   86.4059   11.1030 C.ar    1  UNL1        0.0288
      5 C          61.8403   87.4101   10.1222 C.ar    1  UNL1        0.0065
      6 C          62.0549   88.8755   10.3600 C.ar    1  UNL1        0.0005
      7 C          62.7982   89.3366   11.5785 C.ar    1  UNL1        0.0000
      8 C          63.3269   88.3324   12.5593 C.ar    1  UNL1        0.0002
      9 C          63.1123   86.8670   12.3215 C.ar    1  UNL1        0.0025
     10 C          65.6382   85.0238   14.4638 C.3     1  UNL1        0.0111
     11 C          64.2773   85.6514   14.3975 C.3     1  UNL1        0.0632
     12 C          63.6796   86.2769   15.6228 C.ar    1  UNL1        0.0698
     13 C          63.0395   85.5439   16.7642 C.ar    1  UNL1        0.0519
     14 S          62.5813   86.5593   17.7686 S.2     1  UNL1       -0.0643
     15 C          62.9382   87.9200   17.2480 C.ar    1  UNL1        0.1341
     16 N          63.6170   87.7455   15.9218 N.ar    1  UNL1       -0.2403
     17 C          63.2010   83.0164   12.8014 C.3     1  UNL1        0.0499
     18 C          62.2890   82.4218   13.8332 C.3     1  UNL1        0.0774
     19 N          61.7482   81.0352   13.6465 N.3     1  UNL1       -0.2700
     20 C          60.3878   80.6838   14.1718 C.3     1  UNL1        0.0897
     21 C          62.5676   80.0001   12.9344 C.3     1  UNL1        0.0897
@<TRIPOS>BOND
     1    11    10    1
     2    11    12    1
     3    12    13   ar
     4    13    14   ar
     5    14    15   ar
     6    15    16   ar
     7    11     1    1
     8     1     2   ar
     9     2    17    1
    10    17    18    1
    11    18    19    1
    12    19    20    1
    13    19    21    1
    14     2     3   ar
    15     3     4   ar
    16     4     5   ar
    17     5     6   ar
    18     6     7   ar
    19     7     8   ar
    20     8     9   ar
    21    16    12   ar
    22     9     1   ar
    23     9     4   ar
@<TRIPOS>MOLECULE
*****
 21 23 0 0 0
SMALL
GASTEIGER

@<TRIPOS>ATOM
      1 C          66.0672   92.5079   11.8988 C.ar    1  UNL1       -0.0144
      2 C          64.7502   91.7958   11.8081 C.ar    1  UNL1        0.0051
      3 S          64.3034   91.4684   13.2020 S.2     1  UNL1       -0.0915
      4 C          65.3442   91.9782   14.1543 C.ar    1  UNL1        0.0288
      5 C          65.4402   91.9405   15.6507 C.ar    1  UNL1        0.0065
      6 C          66.6263   92.5451   16.3416 C.ar    1  UNL1        0.0005
      7 C          67.7165   93.1876   15.5361 C.ar    1  UNL1        0.0000
      8 C          67.6205   93.2254   14.0397 C.ar    1  UNL1        0.0002
      9 C          66.4344   92.6207   13.3488 C.ar    1  UNL1        0.0025
     10 C          67.7197   92.0710    9.9421 C.3     1  UNL1        0.0111
     11 C          66.8753   93.0178   10.7424 C.3     1  UNL1        0.0632
     12 C          66.8390   94.4744   10.3864 C.ar    1  UNL1        0.0698
     13 C          66.1274   95.5514   11.1504 C.ar    1  UNL1        0.0519
     14 S          66.3565   96.8524   10.4399 S.2     1  UNL1       -0.0643
     15 C          67.2098   96.5796    9.2369 C.ar    1  UNL1        0.1341
     16 N          67.5080   95.1099    9.2038 N.ar    1  UNL1       -0.2403
     17 C          64.0099   91.4685   10.5452 C.3     1  UNL1        0.0499
     18 C          62.5511   91.1238   10.5988 C.3     1  UNL1        0.0774
     19 N          62.1152   89.6912   10.5119 N.3     1  UNL1       -0.2700
     20 C          61.1379   89.2673    9.4558 C.3     1  UNL1        0.0897
     21 C          62.6566   88.6824   11.4811 C.3     1  UNL1        0.0897
@<TRIPOS>BOND
     1    11    10    1
     2    11    12    1
     3    12    13   ar
     4    13    14   ar
     5    14    15   ar
     6    15    16   ar
     7    11     1    1
     8     1     2   ar
     9     2    17    1
    10    17    18    1
    11    18    19    1
    12    19    20    1
    13    19    21    1
    14     2     3   ar
    15     3     4   ar
    16     4     5   ar
    17     5     6   ar
    18     6     7   ar
    19     7     8   ar
    20     8     9   ar
    21    16    12   ar
    22     9     1   ar
    23     9     4   ar
@<TRIPOS>MOLECULE
*****
 21 23 0 0 0
SMALL
GASTEIGER

@<TRIPOS>ATOM
      1 C          63.0137   84.9332   12.0331 C.ar    1  UNL1       -0.0144
      2 C          63.4939   85.7037   13.2271 C.ar    1  UNL1        0.0051
      3 S          63.7544   84.7267   14.3351 S.2     1  UNL1       -0.0915
      4 C          63.4352   83.3524   13.8258 C.ar    1  UNL1        0.0288
      5 C          63.5023   82.0012   14.4738 C.ar    1  UNL1        0.0065
      6 C          63.1115   80.7777   13.6991 C.ar    1  UNL1        0.0005
      7 C          62.6537   80.9053   12.2763 C.ar    1  UNL1        0.0000
      8 C          62.5867   82.2565   11.6284 C.ar    1  UNL1        0.0002
      9 C          62.9774   83.4800   12.4031 C.ar    1  UNL1        0.0025
     10 C          63.0905   84.8481    9.4375 C.3     1  UNL1        0.0111
     11 C          62.6361   85.5139   10.7026 C.3     1  UNL1        0.0632
     12 C          61.8041   86.7602   10.6371 C.ar    1  UNL1        0.0698
     13 C          61.9907   87.8953    9.6746 C.ar    1  UNL1        0.0519
     14 S          60.9412   88.9269    9.9653 S.2     1  UNL1       -0.0643
     15 C          60.1060   88.4293   11.1075 C.ar    1  UNL1        0.1341
     16 N          60.6392   87.0901   11.5227 N.ar    1  UNL1       -0.2403
     17 C          63.6808   87.1902   13.3003 C.3     1  UNL1        0.0499
     18 C          64.2540   87.8140   14.5381 C.3     1  UNL1        0.0774
     19 N          63.6226   89.0442   15.1194 N.3     1  UNL1       -0.2700
     20 C          63.1685   89.0501   16.5491 C.3     1  UNL1        0.0897
     21 C          63.4452   90.2685   14.2711 C.3     1  UNL1        0.0897
@<TRIPOS>BOND
     1    11    10    1
     2    11    12    1
     3    12    13   ar
     4    13    14   ar
     5    14    15   ar
     6    15    16   ar
     7    11     1    1
     8     1     2   ar
     9     2    17    1
    10    17    18    1
    11    18    19    1
    12    19    20    1
    13    19    21    1
    14     2     3   ar
    15     3     4   ar
    16     4     5   ar
    17     5     6   ar
    18     6     7   ar
    19     7     8   ar
    20     8     9   ar
    21    16    12   ar
    22     9     1   ar
    23     9     4   ar
@<TRIPOS>MOLECULE
*****
 21 23 0 0 0
SMALL
GASTEIGER

@<TRIPOS>ATOM
      1 C          63.7648   89.2605   13.5934 C.ar    1  UNL1       -0.0144
      2 C          63.9395   87.7850   13.7990 C.ar    1  UNL1        0.0051
      3 S          63.3157   87.0775   12.6326 S.2     1  UNL1       -0.0915
      4 C          62.7555   88.1157   11.7063 C.ar    1  UNL1        0.0288
      5 C          62.0285   88.0069   10.3988 C.ar    1  UNL1        0.0065
      6 C          61.5790   89.2473    9.6851 C.ar    1  UNL1        0.0005
      7 C          61.8566   90.5965   10.2788 C.ar    1  UNL1        0.0000
      8 C          62.5836   90.7053   11.5863 C.ar    1  UNL1        0.0002
      9 C          63.0331   89.4649   12.3000 C.ar    1  UNL1        0.0025
     10 C          63.6340   90.4784   15.8846 C.3     1  UNL1        0.0111
     11 C          64.2387   90.3418   14.5187 C.3     1  UNL1        0.0632
     12 C          65.3173   91.2865   14.0782 C.ar    1  UNL1        0.0698
     13 C          66.7383   91.2882   14.5585 C.ar    1  UNL1        0.0519
     14 S          67.4634   92.3982   13.8572 S.2     1  UNL1       -0.0643
     15 C          66.4907   93.0827   12.9434 C.ar    1  UNL1        0.1341
     16 N          65.1642   92.3956   13.0799 N.ar    1  UNL1       -0.2403
     17 C          64.6188   87.1316   14.9659 C.3     1  UNL1        0.0499
     18 C          64.3237   85.6994   15.2999 C.3     1  UNL1        0.0774
     19 N          63.0293   85.3357   15.9651 N.3     1  UNL1       -0.2700
     20 C          62.1670   84.2532   15.3865 C.3     1  UNL1        0.0897
     21 C          62.5973   86.0545   17.2087 C.3     1  UNL1        0.0897
@<TRIPOS>BOND
     1    11    10    1
     2    11    12    1
     3    12    13   ar
     4    13    14   ar
     5    14    15   ar
     6    15    16   ar
     7    11     1    1
     8     1     2   ar
     9     2    17    1
    10    17    18    1
    11    18    19    1
    12    19    20    1
    13    19    21    1
    14     2     3   ar
    15     3     4   ar
    16     4     5   ar
    17     5     6   ar
    18     6     7   ar
    19     7     8   ar
    20     8     9   ar
    21    16    12   ar
    22     9     1   ar
    23     9     4   ar
@<TRIPOS>MOLECULE
*****
 21 23 0 0 0
SMALL
GASTEIGER

@<TRIPOS>ATOM
      1 C          64.9082   91.7373   12.9139 C.ar    1  UNL1       -0.0144
      2 C          65.3000   92.7998   11.9302 C.ar    1  UNL1        0.0051
      3 S          64.6020   92.5116   10.6342 S.2     1  UNL1       -0.0915
      4 C          63.7788   91.2710   10.8169 C.ar    1  UNL1        0.0288
      5 C          62.8814   90.5152    9.8823 C.ar    1  UNL1        0.0065
      6 C          62.1733   89.2810   10.3568 C.ar    1  UNL1        0.0005
      7 C          62.3626   88.8024   11.7657 C.ar    1  UNL1        0.0000
      8 C          63.2600   89.5582   12.7003 C.ar    1  UNL1        0.0002
      9 C          63.9681   90.7925   12.2259 C.ar    1  UNL1        0.0025
     10 C          64.4657   91.0689   15.3853 C.3     1  UNL1        0.0111
     11 C          65.3747   91.6373   14.3360 C.3     1  UNL1        0.0632
     12 C          66.7500   92.1055   14.7090 C.ar    1  UNL1        0.0698
     13 C          67.0901   93.0304   15.8398 C.ar    1  UNL1        0.0519
     14 S          68.5770   93.2276   15.8463 S.2     1  UNL1       -0.0643
     15 C          69.1560   92.4246   14.7195 C.ar    1  UNL1        0.1341
     16 N          68.0268   91.7311   14.0165 N.ar    1  UNL1       -0.2403
     17 C          66.2270   93.9488   12.1959 C.3     1  UNL1        0.0499
     18 C          66.0897   95.2200   11.4116 C.3     1  UNL1        0.0774
     19 N          66.9641   95.4625   10.2172 N.3     1  UNL1       -0.2700
     20 C          67.6794   94.3160    9.5662 C.3     1  UNL1        0.0897
     21 C          67.1232   96.8515    9.6738 C.3     1  UNL1        0.0897
@<TRIPOS>BOND
     1    11    10    1
     2    11    12    1
     3    12    13   ar
     4    13    14   ar
     5    14    15   ar
     6    15    16   ar
     7    11     1    1
     8     1     2   ar
     9     2    17    1
    10    17    18    1
    11    18    19    1
    12    19    20    1
    13    19    21    1
    14     2     3   ar
    15     3     4   ar
    16     4     5   ar
    17     5     6   ar
    18     6     7   ar
    19     7     8   ar
    20     8     9   ar
    21    16    12   ar
    22     9     1   ar
    23     9     4   ar
@<TRIPOS>MOLECULE
*****
 21 23 0 0 0
SMALL
GASTEIGER

@<TRIPOS>ATOM
      1 C          62.3627   86.5367   11.0996 C.ar    1  UNL1       -0.0144
      2 C          62.6989   87.8036   11.8291 C.ar    1  UNL1        0.0051
      3 S          61.9616   88.9294   11.1666 S.2     1  UNL1       -0.0915
      4 C          61.1699   88.3584   10.0277 C.ar    1  UNL1        0.0288
      5 C          60.2552   88.9939    9.0230 C.ar    1  UNL1        0.0065
      6 C          59.5884   88.1507    7.9769 C.ar    1  UNL1        0.0005
      7 C          59.8364   86.6719    7.9356 C.ar    1  UNL1        0.0000
      8 C          60.7510   86.0364    8.9402 C.ar    1  UNL1        0.0002
      9 C          61.4178   86.8796    9.9863 C.ar    1  UNL1        0.0025
     10 C          63.2072   84.2060   10.3219 C.3     1  UNL1        0.0111
     11 C          62.8807   85.1674   11.4261 C.3     1  UNL1        0.0632
     12 C          63.0721   84.7593   12.8567 C.ar    1  UNL1        0.0698
     13 C          64.3348   84.2166   13.4575 C.ar    1  UNL1        0.0519
     14 S          64.0774   83.9441   14.9099 S.2     1  UNL1       -0.0643
     15 C          62.6557   84.3185   15.2069 C.ar    1  UNL1        0.1341
     16 N          62.0342   84.8223   13.9379 N.ar    1  UNL1       -0.2403
     17 C          63.6119   87.9235   13.0131 C.3     1  UNL1        0.0499
     18 C          63.8813   89.2689   13.6193 C.3     1  UNL1        0.0774
     19 N          63.7326   89.4683   15.0985 N.3     1  UNL1       -0.2700
     20 C          63.4298   88.2979   15.9865 C.3     1  UNL1        0.0897
     21 C          63.8868   90.8382   15.6898 C.3     1  UNL1        0.0897
@<TRIPOS>BOND
     1    11    10    1
     2    11    12    1
     3    12    13   ar
     4    13    14   ar
     5    14    15   ar
     6    15    16   ar
     7    11     1    1
     8     1     2   ar
     9     2    17    1
    10    17    18    1
    11    18    19    1
    12    19    20    1
    13    19    21    1
    14     2     3   ar
    15     3     4   ar
    16     4     5   ar
    17     5     6   ar
    18     6     7   ar
    19     7     8   ar
    20     8     9   ar
    21    16    12   ar
    22     9     1   ar
    23     9     4   ar
@<TRIPOS>MOLECULE
*****
 21 23 0 0 0
SMALL
GASTEIGER

@<TRIPOS>ATOM
      1 C          63.0190   84.8885   11.5579 C.ar    1  UNL1       -0.0144
      2 C          63.4084   85.7570   12.7172 C.ar    1  UNL1        0.0051
      3 S          62.8670   87.1335   12.4675 S.2     1  UNL1       -0.0915
      4 C          62.1430   87.1156   11.1539 C.ar    1  UNL1        0.0288
      5 C          61.4103   88.1834   10.3971 C.ar    1  UNL1        0.0065
      6 C          60.7716   87.8638    9.0781 C.ar    1  UNL1        0.0005
      7 C          60.8655   86.4763    8.5160 C.ar    1  UNL1        0.0000
      8 C          61.5981   85.4084    9.2728 C.ar    1  UNL1        0.0002
      9 C          62.2369   85.7281   10.5918 C.ar    1  UNL1        0.0025
     10 C          64.2332   82.9913   10.2630 C.3     1  UNL1        0.0111
     11 C          63.3530   83.4354   11.3936 C.3     1  UNL1        0.0632
     12 C          62.8068   82.4264   12.3597 C.ar    1  UNL1        0.0698
     13 C          62.8724   80.9355   12.2086 C.ar    1  UNL1        0.0519
     14 S          62.2053   80.3187   13.4022 S.2     1  UNL1       -0.0643
     15 C          61.7273   81.4284   14.2909 C.ar    1  UNL1        0.1341
     16 N          62.0991   82.7311   13.6467 N.ar    1  UNL1       -0.2403
     17 C          64.2002   85.3250   13.9157 C.3     1  UNL1        0.0499
     18 C          64.3528   86.2497   15.0869 C.3     1  UNL1        0.0774
     19 N          63.2895   86.3033   16.1436 N.3     1  UNL1       -0.2700
     20 C          63.0798   87.5612   16.9334 C.3     1  UNL1        0.0897
     21 C          62.4361   85.0990   16.4106 C.3     1  UNL1        0.0897
@<TRIPOS>BOND
     1    11    10    1
     2    11    12    1
     3    12    13   ar
     4    13    14   ar
     5    14    15   ar
     6    15    16   ar
     7    11     1    1
     8     1     2   ar
     9     2    17    1
    10    17    18    1
    11    18    19    1
    12    19    20    1
    13    19    21    1
    14     2     3   ar
    15     3     4   ar
    16     4     5   ar
    17     5     6   ar
    18     6     7   ar
    19     7     8   ar
    20     8     9   ar
    21    16    12   ar
    22     9     1   ar
    23     9     4   ar
@<TRIPOS>MOLECULE
*****
 21 23 0 0 0
SMALL
GASTEIGER

@<TRIPOS>ATOM
      1 C          63.7686   89.1432   13.6133 C.ar    1  UNL1       -0.0144
      2 C          63.0531   89.3129   12.3059 C.ar    1  UNL1        0.0051
      3 S          62.7712   87.9480   11.7513 S.2     1  UNL1       -0.0915
      4 C          63.3124   86.9348   12.7159 C.ar    1  UNL1        0.0288
      5 C          63.3236   85.4350   12.6950 C.ar    1  UNL1        0.0065
      6 C          63.9511   84.6739   13.8250 C.ar    1  UNL1        0.0005
      7 C          64.5676   85.4125   14.9758 C.ar    1  UNL1        0.0000
      8 C          64.5564   86.9123   14.9967 C.ar    1  UNL1        0.0002
      9 C          63.9288   87.6734   13.8667 C.ar    1  UNL1        0.0025
     10 C          63.6491   90.4091   15.8791 C.3     1  UNL1        0.0111
     11 C          64.2409   90.2491   14.5100 C.3     1  UNL1        0.0632
     12 C          65.3049   91.1949   14.0377 C.ar    1  UNL1        0.0698
     13 C          66.7398   91.1974   14.4747 C.ar    1  UNL1        0.0519
     14 S          67.4425   92.3084   13.7525 S.2     1  UNL1       -0.0643
     15 C          66.4420   92.9927   12.8690 C.ar    1  UNL1        0.1341
     16 N          65.1208   92.3045   13.0452 N.ar    1  UNL1       -0.2403
     17 C          62.6844   90.6182   11.6656 C.3     1  UNL1        0.0499
     18 C          61.9711   90.6313   10.3461 C.3     1  UNL1        0.0774
     19 N          60.5594   90.1333   10.2516 N.3     1  UNL1       -0.2700
     20 C          59.5525   90.5319   11.2896 C.3     1  UNL1        0.0897
     21 C          60.1545   89.2367    9.1193 C.3     1  UNL1        0.0897
@<TRIPOS>BOND
     1    11    10    1
     2    11    12    1
     3    12    13   ar
     4    13    14   ar
     5    14    15   ar
     6    15    16   ar
     7    11     1    1
     8     1     2   ar
     9     2    17    1
    10    17    18    1
    11    18    19    1
    12    19    20    1
    13    19    21    1
    14     2     3   ar
    15     3     4   ar
    16     4     5   ar
    17     5     6   ar
    18     6     7   ar
    19     7     8   ar
    20     8     9   ar
    21    16    12   ar
    22     9     1   ar
    23     9     4   ar
@<TRIPOS>MOLECULE
*****
 21 23 0 0 0
SMALL
GASTEIGER

@<TRIPOS>ATOM
      1 C          63.3265   86.0827   12.7840 C.ar    1  UNL1       -0.0144
      2 C          63.8411   85.3141   13.9648 C.ar    1  UNL1        0.0051
      3 S          64.3798   86.2989   14.9598 S.2     1  UNL1       -0.0915
      4 C          64.1982   87.6761   14.3939 C.ar    1  UNL1        0.0288
      5 C          64.5415   89.0346   14.9293 C.ar    1  UNL1        0.0065
      6 C          64.2338   90.2594   14.1200 C.ar    1  UNL1        0.0005
      7 C          63.5828   90.1258   12.7752 C.ar    1  UNL1        0.0000
      8 C          63.2395   88.7674   12.2398 C.ar    1  UNL1        0.0002
      9 C          63.5472   87.5425   13.0491 C.ar    1  UNL1        0.0025
     10 C          63.0474   84.0979   11.1308 C.3     1  UNL1        0.0111
     11 C          62.7010   85.4948   11.5539 C.3     1  UNL1        0.0632
     12 C          61.7292   86.3036   10.7469 C.ar    1  UNL1        0.0698
     13 C          61.7103   86.4243    9.2519 C.ar    1  UNL1        0.0519
     14 S          60.5750   87.3290    8.8742 S.2     1  UNL1       -0.0643
     15 C          59.8923   87.7674   10.1357 C.ar    1  UNL1        0.1341
     16 N          60.6056   87.1337   11.2932 N.ar    1  UNL1       -0.2403
     17 C          63.8205   83.8226   14.1230 C.3     1  UNL1        0.0499
     18 C          62.5354   83.1205   14.4479 C.3     1  UNL1        0.0774
     19 N          62.3397   81.6893   14.0436 N.3     1  UNL1       -0.2700
     20 C          60.9872   81.0528   14.1692 C.3     1  UNL1        0.0897
     21 C          63.4963   80.8948   13.5137 C.3     1  UNL1        0.0897
@<TRIPOS>BOND
     1    11    10    1
     2    11    12    1
     3    12    13   ar
     4    13    14   ar
     5    14    15   ar
     6    15    16   ar
     7    11     1    1
     8     1     2   ar
     9     2    17    1
    10    17    18    1
    11    18    19    1
    12    19    20    1
    13    19    21    1
    14     2     3   ar
    15     3     4   ar
    16     4     5   ar
    17     5     6   ar
    18     6     7   ar
    19     7     8   ar
    20     8     9   ar
    21    16    12   ar
    22     9     1   ar
    23     9     4   ar
