@<TRIPOS>MOLECULE
*****
 29 31 0 0 0
SMALL
GASTEIGER

@<TRIPOS>ATOM
      1 C          65.8340   91.7264   13.8118 C.3     1  UNL1        0.0373
      2 C          65.3538   91.4415   15.2040 C.3     1  UNL1        0.0075
      3 C          64.1096   90.6312   15.4170 C.3     1  UNL1        0.0219
      4 C          63.3455   90.1059   14.2379 C.3     1  UNL1        0.0950
      5 N          63.8258   90.3909   12.8457 N.am    1  UNL1       -0.2637
      6 C          63.0618   89.8656   11.6665 C.2     1  UNL1        0.3077
      7 O          63.5421   90.1506   10.2744 O.2     1  UNL1       -0.2522
      8 N          61.8175   89.0553   11.8796 N.am    1  UNL1       -0.2681
      9 C          65.0700   91.2011   12.6327 C.3     1  UNL1        0.0989
     10 H          61.5023   88.8683   12.7933 H       1  UNL1        0.1564
     11 C          61.0536   88.5301   10.7004 C.ar    1  UNL1        0.0516
     12 C          60.4169   89.4843    9.7339 C.ar    1  UNL1        0.0156
     13 C          59.6530   88.9592    8.5547 C.ar    1  UNL1        0.0127
     14 C          59.5257   87.4798    8.3420 C.ar    1  UNL1        0.0578
     15 CL         58.7618   86.9546    7.1627 Cl      1  UNL1       -0.0822
     16 C          60.1624   86.5255    9.3084 C.ar    1  UNL1        0.0127
     17 C          60.9263   87.0507   10.4877 C.ar    1  UNL1        0.0156
     18 C          66.8925   92.4363   14.6029 C.ar    1  UNL1       -0.0212
     19 C          67.8446   91.6513   15.4555 C.ar    1  UNL1       -0.0042
     20 C          68.9031   92.3612   16.2465 C.ar    1  UNL1       -0.0003
     21 C          69.0093   93.8562   16.1849 C.ar    1  UNL1       -0.0000
     22 C          68.0571   94.6412   15.3323 C.ar    1  UNL1       -0.0003
     23 C          66.9987   93.9313   14.5413 C.ar    1  UNL1       -0.0042
     24 C          66.6818   92.2579   12.6944 C.3     1  UNL1        0.0061
     25 C          66.0434   92.6821   11.4050 C.3     1  UNL1        0.0063
     26 C          66.4083   93.9983   10.7848 C.3     1  UNL1        0.0417
     27 O          68.7322   93.3767    9.8034 O.co2   1  UNL1       -0.5492
     28 C          67.3986   94.0480    9.6593 C.2     1  UNL1        0.0503
     29 O          67.0553   94.7693    8.3896 O.co2   1  UNL1       -0.5492
@<TRIPOS>UNITY_ATOM_ATTR
27 1
charge -1
@<TRIPOS>BOND
     1    27    28   ar
     2    28    29   ar
     3    28    26    1
     4    26    25    1
     5    25    24    1
     6    24     1    1
     7     1    18    1
     8    18    19   ar
     9    19    20   ar
    10    20    21   ar
    11    21    22   ar
    12    22    23   ar
    13     1     2    1
    14     2     3    1
    15     3     4    1
    16     4     5    1
    17     5     6   am
    18     6     7    2
    19     6     8   am
    20     8    11    1
    21    11    12   ar
    22    12    13   ar
    23    13    14   ar
    24    14    15    1
    25    14    16   ar
    26    16    17   ar
    27     5     9    1
    28     9     1    1
    29    23    18   ar
    30    17    11   ar
    31     8    10    1
@<TRIPOS>MOLECULE
*****
 29 31 0 0 0
SMALL
GASTEIGER

@<TRIPOS>ATOM
      1 C          65.7232   91.7320   13.4529 C.3     1  UNL1        0.0373
      2 C          66.1364   92.8929   12.5976 C.3     1  UNL1        0.0075
      3 C          65.5143   93.0882   11.2468 C.3     1  UNL1        0.0219
      4 C          64.4789   92.1226   10.7512 C.3     1  UNL1        0.0950
      5 N          64.0657   90.9617   11.6065 N.am    1  UNL1       -0.2637
      6 C          63.0303   89.9961   11.1109 C.2     1  UNL1        0.3077
      7 O          62.6171   88.8352   11.9663 O.2     1  UNL1       -0.2522
      8 N          62.4081   90.1914    9.7601 N.am    1  UNL1       -0.2681
      9 C          64.6878   90.7664   12.9573 C.3     1  UNL1        0.0989
     10 H          62.6794   90.9533    9.1987 H       1  UNL1        0.1564
     11 C          61.3728   89.2257    9.2646 C.ar    1  UNL1        0.0516
     12 C          60.2583   89.7077    8.3837 C.ar    1  UNL1        0.0156
     13 C          59.2230   88.7421    7.8882 C.ar    1  UNL1        0.0127
     14 C          59.3019   87.2946    8.2735 C.ar    1  UNL1        0.0578
     15 CL         58.2665   86.3290    7.7780 Cl      1  UNL1       -0.0822
     16 C          60.4163   86.8126    9.1544 C.ar    1  UNL1        0.0127
     17 C          61.4518   87.7783    9.6499 C.ar    1  UNL1        0.0156
     18 C          66.7374   92.3716   14.3543 C.ar    1  UNL1       -0.0212
     19 C          66.8853   93.8641   14.3770 C.ar    1  UNL1       -0.0042
     20 C          67.8995   94.5036   15.2783 C.ar    1  UNL1       -0.0003
     21 C          68.7658   93.6506   16.1569 C.ar    1  UNL1       -0.0000
     22 C          68.6179   92.1581   16.1342 C.ar    1  UNL1       -0.0003
     23 C          67.6038   91.5186   15.2328 C.ar    1  UNL1       -0.0042
     24 C          65.6622   90.7932   14.6212 C.3     1  UNL1        0.0061
     25 C          64.4155   90.0012   14.8826 C.3     1  UNL1        0.0063
     26 C          63.6731   90.1755   16.1744 C.3     1  UNL1        0.0417
     27 O          63.0773   88.0122   17.4841 O.co2   1  UNL1       -0.5492
     28 C          62.6628   89.1528   16.6026 C.2     1  UNL1        0.0503
     29 O          61.2378   89.2708   16.1492 O.co2   1  UNL1       -0.5492
@<TRIPOS>UNITY_ATOM_ATTR
27 1
charge -1
@<TRIPOS>BOND
     1    27    28   ar
     2    28    29   ar
     3    28    26    1
     4    26    25    1
     5    25    24    1
     6    24     1    1
     7     1    18    1
     8    18    19   ar
     9    19    20   ar
    10    20    21   ar
    11    21    22   ar
    12    22    23   ar
    13     1     2    1
    14     2     3    1
    15     3     4    1
    16     4     5    1
    17     5     6   am
    18     6     7    2
    19     6     8   am
    20     8    11    1
    21    11    12   ar
    22    12    13   ar
    23    13    14   ar
    24    14    15    1
    25    14    16   ar
    26    16    17   ar
    27     5     9    1
    28     9     1    1
    29    23    18   ar
    30    17    11   ar
    31     8    10    1
@<TRIPOS>MOLECULE
*****
 29 31 0 0 0
SMALL
GASTEIGER

@<TRIPOS>ATOM
      1 C          65.7349   93.1370   11.7692 C.3     1  UNL1        0.0373
      2 C          66.4543   93.9583   12.7977 C.3     1  UNL1        0.0075
      3 C          66.5507   93.4712   14.2131 C.3     1  UNL1        0.0219
      4 C          65.9276   92.1627   14.5999 C.3     1  UNL1        0.0950
      5 N          65.2082   91.3414   13.5714 N.am    1  UNL1       -0.2637
      6 C          64.5851   90.0329   13.9583 C.2     1  UNL1        0.3077
      7 O          63.8657   89.2116   12.9297 O.2     1  UNL1       -0.2522
      8 N          64.6814   89.5457   15.3737 N.am    1  UNL1       -0.2681
      9 C          65.1118   91.8285   12.1560 C.3     1  UNL1        0.0989
     10 H          65.1536   90.0847   16.0488 H       1  UNL1        0.1564
     11 C          64.0583   88.2372   15.7604 C.ar    1  UNL1        0.0516
     12 C          64.4285   86.9837   15.0244 C.ar    1  UNL1        0.0156
     13 C          63.8055   85.6752   15.4111 C.ar    1  UNL1        0.0127
     14 C          62.8122   85.6202   16.5338 C.ar    1  UNL1        0.0578
     15 CL         62.1892   84.3116   16.9206 Cl      1  UNL1       -0.0822
     16 C          62.4421   86.8736   17.2699 C.ar    1  UNL1        0.0127
     17 C          63.0652   88.1822   16.8831 C.ar    1  UNL1        0.0156
     18 C          66.1593   94.3007   10.9230 C.ar    1  UNL1       -0.0212
     19 C          67.0013   94.0730    9.7027 C.ar    1  UNL1       -0.0042
     20 C          67.4257   95.2366    8.8566 C.ar    1  UNL1       -0.0003
     21 C          67.0081   96.6278    9.2308 C.ar    1  UNL1       -0.0000
     22 C          66.1661   96.8555   10.4511 C.ar    1  UNL1       -0.0003
     23 C          65.7417   95.6919   11.2972 C.ar    1  UNL1       -0.0042
     24 C          65.1629   92.7199   10.4467 C.3     1  UNL1        0.0061
     25 C          64.3673   91.4528   10.3399 C.3     1  UNL1        0.0063
     26 C          62.9035   91.5112   10.0174 C.3     1  UNL1        0.0417
     27 O          62.5096   88.9443    9.9421 O.co2   1  UNL1       -0.5492
     28 C          62.0284   90.3228   10.2856 C.2     1  UNL1        0.0503
     29 O          60.6721   90.5130   10.8973 O.co2   1  UNL1       -0.5492
@<TRIPOS>UNITY_ATOM_ATTR
27 1
charge -1
@<TRIPOS>BOND
     1    27    28   ar
     2    28    29   ar
     3    28    26    1
     4    26    25    1
     5    25    24    1
     6    24     1    1
     7     1    18    1
     8    18    19   ar
     9    19    20   ar
    10    20    21   ar
    11    21    22   ar
    12    22    23   ar
    13     1     2    1
    14     2     3    1
    15     3     4    1
    16     4     5    1
    17     5     6   am
    18     6     7    2
    19     6     8   am
    20     8    11    1
    21    11    12   ar
    22    12    13   ar
    23    13    14   ar
    24    14    15    1
    25    14    16   ar
    26    16    17   ar
    27     5     9    1
    28     9     1    1
    29    23    18   ar
    30    17    11   ar
    31     8    10    1
@<TRIPOS>MOLECULE
*****
 29 31 0 0 0
SMALL
GASTEIGER

@<TRIPOS>ATOM
      1 C          63.9356   87.9669   14.6735 C.3     1  UNL1        0.0373
      2 C          63.7982   87.7273   16.1478 C.3     1  UNL1        0.0075
      3 C          63.5328   86.3431   16.6612 C.3     1  UNL1        0.0219
      4 C          63.4048   85.1985   15.7002 C.3     1  UNL1        0.0950
      5 N          63.5422   85.4380   14.2259 N.am    1  UNL1       -0.2637
      6 C          63.4142   84.2934   13.2649 C.2     1  UNL1        0.3077
      7 O          63.5516   84.5330   11.7906 O.2     1  UNL1       -0.2522
      8 N          63.1488   82.9092   13.7783 N.am    1  UNL1       -0.2681
      9 C          63.8076   86.8222   13.7125 C.3     1  UNL1        0.0989
     10 H          63.0586   82.7519   14.7460 H       1  UNL1        0.1564
     11 C          63.0208   81.7647   12.8173 C.ar    1  UNL1        0.0516
     12 C          62.5922   80.4147   13.3116 C.ar    1  UNL1        0.0156
     13 C          62.4642   79.2702   12.3506 C.ar    1  UNL1        0.0127
     14 C          62.7648   79.4754   10.8954 C.ar    1  UNL1        0.0578
     15 CL         62.6367   78.3308    9.9344 Cl      1  UNL1       -0.0822
     16 C          63.1933   80.8252   10.4012 C.ar    1  UNL1        0.0127
     17 C          63.3213   81.9699   11.3622 C.ar    1  UNL1        0.0156
     18 C          64.1355   89.3631   15.1840 C.ar    1  UNL1       -0.0212
     19 C          65.1777   90.2462   14.5644 C.ar    1  UNL1       -0.0042
     20 C          65.3775   91.6424   15.0749 C.ar    1  UNL1       -0.0003
     21 C          64.5350   92.1555   16.2050 C.ar    1  UNL1       -0.0000
     22 C          63.4928   91.2725   16.8245 C.ar    1  UNL1       -0.0003
     23 C          63.2930   89.8763   16.3140 C.ar    1  UNL1       -0.0042
     24 C          64.1424   88.6913   13.3764 C.3     1  UNL1        0.0061
     25 C          63.1237   88.5749   12.2816 C.3     1  UNL1        0.0063
     26 C          62.2105   89.7265   11.9813 C.3     1  UNL1        0.0417
     27 O          60.1213   90.4983   10.6435 O.co2   1  UNL1       -0.5492
     28 C          60.8189   89.4700   11.4838 C.2     1  UNL1        0.0503
     29 O          60.1247   88.1853   11.8267 O.co2   1  UNL1       -0.5492
@<TRIPOS>UNITY_ATOM_ATTR
27 1
charge -1
@<TRIPOS>BOND
     1    27    28   ar
     2    28    29   ar
     3    28    26    1
     4    26    25    1
     5    25    24    1
     6    24     1    1
     7     1    18    1
     8    18    19   ar
     9    19    20   ar
    10    20    21   ar
    11    21    22   ar
    12    22    23   ar
    13     1     2    1
    14     2     3    1
    15     3     4    1
    16     4     5    1
    17     5     6   am
    18     6     7    2
    19     6     8   am
    20     8    11    1
    21    11    12   ar
    22    12    13   ar
    23    13    14   ar
    24    14    15    1
    25    14    16   ar
    26    16    17   ar
    27     5     9    1
    28     9     1    1
    29    23    18   ar
    30    17    11   ar
    31     8    10    1
@<TRIPOS>MOLECULE
*****
 29 31 0 0 0
SMALL
GASTEIGER

@<TRIPOS>ATOM
      1 C          63.0656   84.4472   13.4853 C.3     1  UNL1        0.0373
      2 C          63.3869   84.0157   14.8855 C.3     1  UNL1        0.0075
      3 C          64.0042   84.9877   15.8468 C.3     1  UNL1        0.0219
      4 C          64.3003   86.3912   15.4080 C.3     1  UNL1        0.0950
      5 N          63.9790   86.8227   14.0078 N.am    1  UNL1       -0.2637
      6 C          64.2750   88.2262   13.5689 C.2     1  UNL1        0.3077
      7 O          63.9537   88.6576   12.1687 O.2     1  UNL1       -0.2522
      8 N          64.8923   89.1982   14.5303 N.am    1  UNL1       -0.2681
      9 C          63.3617   85.8507   13.0464 C.3     1  UNL1        0.0989
     10 H          65.1032   88.9150   15.4493 H       1  UNL1        0.1564
     11 C          65.1883   90.6016   14.0913 C.ar    1  UNL1        0.0516
     12 C          66.0130   91.5018   14.9630 C.ar    1  UNL1        0.0156
     13 C          66.3090   92.9052   14.5241 C.ar    1  UNL1        0.0127
     14 C          65.7804   93.4086   13.2136 C.ar    1  UNL1        0.0578
     15 CL         66.0765   94.8121   12.7747 Cl      1  UNL1       -0.0822
     16 C          64.9558   92.5084   12.3420 C.ar    1  UNL1        0.0127
     17 C          64.6597   91.1049   12.7809 C.ar    1  UNL1        0.0156
     18 C          62.6021   83.0216   13.4314 C.ar    1  UNL1       -0.0212
     19 C          63.1330   82.0998   12.3739 C.ar    1  UNL1       -0.0042
     20 C          62.6695   80.6743   12.3200 C.ar    1  UNL1       -0.0003
     21 C          61.6750   80.1706   13.3236 C.ar    1  UNL1       -0.0000
     22 C          61.1441   81.0923   14.3811 C.ar    1  UNL1       -0.0003
     23 C          61.6076   82.5179   14.4350 C.ar    1  UNL1       -0.0042
     24 C          62.5833   84.3836   12.0664 C.3     1  UNL1        0.0061
     25 C          61.9980   85.6029   11.4178 C.3     1  UNL1        0.0063
     26 C          61.8457   85.6593    9.9266 C.3     1  UNL1        0.0417
     27 O          60.0699   87.5508   10.0644 O.co2   1  UNL1       -0.5492
     28 C          60.7006   86.4130    9.3177 C.2     1  UNL1        0.0503
     29 O          60.1863   86.0289    7.9620 O.co2   1  UNL1       -0.5492
@<TRIPOS>UNITY_ATOM_ATTR
27 1
charge -1
@<TRIPOS>BOND
     1    27    28   ar
     2    28    29   ar
     3    28    26    1
     4    26    25    1
     5    25    24    1
     6    24     1    1
     7     1    18    1
     8    18    19   ar
     9    19    20   ar
    10    20    21   ar
    11    21    22   ar
    12    22    23   ar
    13     1     2    1
    14     2     3    1
    15     3     4    1
    16     4     5    1
    17     5     6   am
    18     6     7    2
    19     6     8   am
    20     8    11    1
    21    11    12   ar
    22    12    13   ar
    23    13    14   ar
    24    14    15    1
    25    14    16   ar
    26    16    17   ar
    27     5     9    1
    28     9     1    1
    29    23    18   ar
    30    17    11   ar
    31     8    10    1
@<TRIPOS>MOLECULE
*****
 29 31 0 0 0
SMALL
GASTEIGER

@<TRIPOS>ATOM
      1 C          65.3461   91.2764   13.4005 C.3     1  UNL1        0.0373
      2 C          65.7679   92.4677   12.5924 C.3     1  UNL1        0.0075
      3 C          65.1646   92.7084   11.2403 C.3     1  UNL1        0.0219
      4 C          64.1395   91.7579   10.6964 C.3     1  UNL1        0.0950
      5 N          63.7178   90.5667   11.5045 N.am    1  UNL1       -0.2637
      6 C          62.6927   89.6162   10.9606 C.2     1  UNL1        0.3077
      7 O          62.2711   88.4249   11.7687 O.2     1  UNL1       -0.2522
      8 N          62.0895   89.8569    9.6085 N.am    1  UNL1       -0.2681
      9 C          64.3211   90.3259   12.8565 C.3     1  UNL1        0.0989
     10 H          62.3662   90.6388    9.0781 H       1  UNL1        0.1564
     11 C          61.0644   88.9064    9.0647 C.ar    1  UNL1        0.0516
     12 C          61.1525   87.4439    9.3864 C.ar    1  UNL1        0.0156
     13 C          60.1276   86.4933    8.8426 C.ar    1  UNL1        0.0127
     14 C          59.0145   87.0051    7.9770 C.ar    1  UNL1        0.0578
     15 CL         57.9895   86.0545    7.4332 Cl      1  UNL1       -0.0822
     16 C          58.9264   88.4676    7.6553 C.ar    1  UNL1        0.0127
     17 C          59.9514   89.4182    8.1992 C.ar    1  UNL1        0.0156
     18 C          66.3452   91.8869   14.3382 C.ar    1  UNL1       -0.0212
     19 C          65.9063   92.3785   15.6856 C.ar    1  UNL1       -0.0042
     20 C          66.9054   92.9888   16.6233 C.ar    1  UNL1       -0.0003
     21 C          68.3434   93.1076   16.2135 C.ar    1  UNL1       -0.0000
     22 C          68.7824   92.6160   14.8661 C.ar    1  UNL1       -0.0003
     23 C          67.7833   92.0056   13.9285 C.ar    1  UNL1       -0.0042
     24 C          65.2714   90.2972   14.5343 C.3     1  UNL1        0.0061
     25 C          64.1045   89.3608   14.6409 C.3     1  UNL1        0.0063
     26 C          64.2362   88.0833   15.4159 C.3     1  UNL1        0.0417
     27 O          63.4952   86.3182   13.6594 O.co2   1  UNL1       -0.5492
     28 C          64.4729   86.7896   14.6947 C.2     1  UNL1        0.0503
     29 O          65.6874   85.9671   15.0088 O.co2   1  UNL1       -0.5492
@<TRIPOS>UNITY_ATOM_ATTR
27 1
charge -1
@<TRIPOS>BOND
     1    27    28   ar
     2    28    29   ar
     3    28    26    1
     4    26    25    1
     5    25    24    1
     6    24     1    1
     7     1    18    1
     8    18    19   ar
     9    19    20   ar
    10    20    21   ar
    11    21    22   ar
    12    22    23   ar
    13     1     2    1
    14     2     3    1
    15     3     4    1
    16     4     5    1
    17     5     6   am
    18     6     7    2
    19     6     8   am
    20     8    11    1
    21    11    12   ar
    22    12    13   ar
    23    13    14   ar
    24    14    15    1
    25    14    16   ar
    26    16    17   ar
    27     5     9    1
    28     9     1    1
    29    23    18   ar
    30    17    11   ar
    31     8    10    1
@<TRIPOS>MOLECULE
*****
 29 31 0 0 0
SMALL
GASTEIGER

@<TRIPOS>ATOM
      1 C          63.0585   84.4266   13.3160 C.3     1  UNL1        0.0373
      2 C          62.1430   84.4227   12.1278 C.3     1  UNL1        0.0075
      3 C          61.9079   85.6884   11.3579 C.3     1  UNL1        0.0219
      4 C          62.5884   86.9580   11.7762 C.3     1  UNL1        0.0950
      5 N          63.5039   86.9620   12.9644 N.am    1  UNL1       -0.2637
      6 C          64.1844   88.2317   13.3827 C.2     1  UNL1        0.3077
      7 O          65.0999   88.2355   14.5709 O.2     1  UNL1       -0.2522
      8 N          63.9493   89.4973   12.6128 N.am    1  UNL1       -0.2681
      9 C          63.7390   85.6963   13.7343 C.3     1  UNL1        0.0989
     10 H          63.3484   89.4948   11.8329 H       1  UNL1        0.1564
     11 C          64.6298   90.7669   13.0311 C.ar    1  UNL1        0.0516
     12 C          64.9658   90.9972   14.4748 C.ar    1  UNL1        0.0156
     13 C          65.6463   92.2667   14.8932 C.ar    1  UNL1        0.0127
     14 C          65.9908   93.3061   13.8680 C.ar    1  UNL1        0.0578
     15 CL         66.6713   94.5757   14.2864 Cl      1  UNL1       -0.0822
     16 C          65.6548   93.0759   12.4244 C.ar    1  UNL1        0.0127
     17 C          64.9743   91.8063   12.0059 C.ar    1  UNL1        0.0156
     18 C          62.6462   82.9844   13.3096 C.ar    1  UNL1       -0.0212
     19 C          63.2197   82.0449   12.2906 C.ar    1  UNL1       -0.0042
     20 C          62.8075   80.6027   12.2842 C.ar    1  UNL1       -0.0003
     21 C          61.8218   80.1000   13.2969 C.ar    1  UNL1       -0.0000
     22 C          61.2483   81.0394   14.3160 C.ar    1  UNL1       -0.0003
     23 C          61.6605   82.4816   14.3223 C.ar    1  UNL1       -0.0042
     24 C          63.8308   83.9297   14.5020 C.3     1  UNL1        0.0061
     25 C          63.9625   84.7885   15.7247 C.3     1  UNL1        0.0063
     26 C          62.7445   85.1496   16.5223 C.3     1  UNL1        0.0417
     27 O          62.4594   86.4433   18.7573 O.co2   1  UNL1       -0.5492
     28 C          62.6990   86.4454   17.2766 C.2     1  UNL1        0.0503
     29 O          62.8932   87.7433   16.5500 O.co2   1  UNL1       -0.5492
@<TRIPOS>UNITY_ATOM_ATTR
27 1
charge -1
@<TRIPOS>BOND
     1    27    28   ar
     2    28    29   ar
     3    28    26    1
     4    26    25    1
     5    25    24    1
     6    24     1    1
     7     1    18    1
     8    18    19   ar
     9    19    20   ar
    10    20    21   ar
    11    21    22   ar
    12    22    23   ar
    13     1     2    1
    14     2     3    1
    15     3     4    1
    16     4     5    1
    17     5     6   am
    18     6     7    2
    19     6     8   am
    20     8    11    1
    21    11    12   ar
    22    12    13   ar
    23    13    14   ar
    24    14    15    1
    25    14    16   ar
    26    16    17   ar
    27     5     9    1
    28     9     1    1
    29    23    18   ar
    30    17    11   ar
    31     8    10    1
@<TRIPOS>MOLECULE
*****
 29 31 0 0 0
SMALL
GASTEIGER

@<TRIPOS>ATOM
      1 C          63.3506   83.4867   12.3676 C.3     1  UNL1        0.0373
      2 C          62.4811   83.7500   11.1741 C.3     1  UNL1        0.0075
      3 C          62.1062   85.1572   10.8150 C.3     1  UNL1        0.0219
      4 C          62.6008   86.3013   11.6495 C.3     1  UNL1        0.0950
      5 N          63.4702   86.0381   12.8431 N.am    1  UNL1       -0.2637
      6 C          63.9648   87.1822   13.6777 C.2     1  UNL1        0.3077
      7 O          64.8343   86.9189   14.8713 O.2     1  UNL1       -0.2522
      8 N          63.5899   88.5895   13.3186 N.am    1  UNL1       -0.2681
      9 C          63.8452   84.6309   13.2022 C.3     1  UNL1        0.0989
     10 H          63.0193   88.7623   12.5352 H       1  UNL1        0.1564
     11 C          64.0846   89.7336   14.1532 C.ar    1  UNL1        0.0516
     12 C          63.4845   89.9911   15.5037 C.ar    1  UNL1        0.0156
     13 C          63.9791   91.1350   16.3383 C.ar    1  UNL1        0.0127
     14 C          65.0737   92.0216   15.8225 C.ar    1  UNL1        0.0578
     15 CL         65.5683   93.1656   16.6572 Cl      1  UNL1       -0.0822
     16 C          65.6737   91.7641   14.4721 C.ar    1  UNL1        0.0127
     17 C          65.1791   90.6200   13.6374 C.ar    1  UNL1        0.0156
     18 C          63.1315   82.0817   11.8900 C.ar    1  UNL1       -0.0212
     19 C          63.3947   81.7273   10.4565 C.ar    1  UNL1       -0.0042
     20 C          63.1757   80.3223    9.9790 C.ar    1  UNL1       -0.0003
     21 C          62.6935   79.2718   10.9350 C.ar    1  UNL1       -0.0000
     22 C          62.4303   79.6263   12.3685 C.ar    1  UNL1       -0.0003
     23 C          62.6493   81.0312   12.8460 C.ar    1  UNL1       -0.0042
     24 C          64.1440   82.7356   13.3954 C.3     1  UNL1        0.0061
     25 C          64.3753   83.3360   14.7503 C.3     1  UNL1        0.0063
     26 C          63.2779   83.3249   15.7729 C.3     1  UNL1        0.0417
     27 O          61.2388   84.8782   15.3491 O.co2   1  UNL1       -0.5492
     28 C          62.5194   84.5838   16.0726 C.2     1  UNL1        0.0503
     29 O          63.0415   85.5484   17.0959 O.co2   1  UNL1       -0.5492
@<TRIPOS>UNITY_ATOM_ATTR
27 1
charge -1
@<TRIPOS>BOND
     1    27    28   ar
     2    28    29   ar
     3    28    26    1
     4    26    25    1
     5    25    24    1
     6    24     1    1
     7     1    18    1
     8    18    19   ar
     9    19    20   ar
    10    20    21   ar
    11    21    22   ar
    12    22    23   ar
    13     1     2    1
    14     2     3    1
    15     3     4    1
    16     4     5    1
    17     5     6   am
    18     6     7    2
    19     6     8   am
    20     8    11    1
    21    11    12   ar
    22    12    13   ar
    23    13    14   ar
    24    14    15    1
    25    14    16   ar
    26    16    17   ar
    27     5     9    1
    28     9     1    1
    29    23    18   ar
    30    17    11   ar
    31     8    10    1
@<TRIPOS>MOLECULE
*****
 29 31 0 0 0
SMALL
GASTEIGER

@<TRIPOS>ATOM
      1 C          61.9150   88.6257   10.2852 C.3     1  UNL1        0.0373
      2 C          61.6246   89.7001    9.2796 C.3     1  UNL1        0.0075
      3 C          62.3066   91.0318    9.3868 C.3     1  UNL1        0.0219
      4 C          63.2790   91.2890   10.4997 C.3     1  UNL1        0.0950
      5 N          63.5693   90.2146   11.5053 N.am    1  UNL1       -0.2637
      6 C          64.5417   90.4718   12.6181 C.2     1  UNL1        0.3077
      7 O          64.8320   89.3973   13.6237 O.2     1  UNL1       -0.2522
      8 N          65.2237   91.8035   12.7253 N.am    1  UNL1       -0.2681
      9 C          62.8873   88.8829   11.3981 C.3     1  UNL1        0.0989
     10 H          65.0332   92.5087   12.0653 H       1  UNL1        0.1564
     11 C          66.1960   92.0606   13.8381 C.ar    1  UNL1        0.0516
     12 C          65.6934   92.4169   15.2059 C.ar    1  UNL1        0.0156
     13 C          66.6656   92.6741   16.3187 C.ar    1  UNL1        0.0127
     14 C          68.1406   92.5749   16.0640 C.ar    1  UNL1        0.0578
     15 CL         69.1129   92.8321   17.1769 Cl      1  UNL1       -0.0822
     16 C          68.6432   92.2186   14.6963 C.ar    1  UNL1        0.0127
     17 C          67.6709   91.9615   13.5834 C.ar    1  UNL1        0.0156
     18 C          60.9239   87.9088    9.4169 C.ar    1  UNL1       -0.0212
     19 C          61.2430   86.5435    8.8842 C.ar    1  UNL1       -0.0042
     20 C          60.2520   85.8267    8.0159 C.ar    1  UNL1       -0.0003
     21 C          58.9417   86.4753    7.6804 C.ar    1  UNL1       -0.0000
     22 C          58.6225   87.8406    8.2131 C.ar    1  UNL1       -0.0003
     23 C          59.6136   88.5574    9.0814 C.ar    1  UNL1       -0.0042
     24 C          61.8611   87.3023   10.9893 C.3     1  UNL1        0.0061
     25 C          62.9086   86.9489   12.0030 C.3     1  UNL1        0.0063
     26 C          63.0292   85.5374   12.4962 C.3     1  UNL1        0.0417
     27 O          63.7121   86.1498   14.9269 O.co2   1  UNL1       -0.5492
     28 C          63.8170   85.2415   13.7379 C.2     1  UNL1        0.0503
     29 O          64.7097   84.0372   13.7905 O.co2   1  UNL1       -0.5492
@<TRIPOS>UNITY_ATOM_ATTR
27 1
charge -1
@<TRIPOS>BOND
     1    27    28   ar
     2    28    29   ar
     3    28    26    1
     4    26    25    1
     5    25    24    1
     6    24     1    1
     7     1    18    1
     8    18    19   ar
     9    19    20   ar
    10    20    21   ar
    11    21    22   ar
    12    22    23   ar
    13     1     2    1
    14     2     3    1
    15     3     4    1
    16     4     5    1
    17     5     6   am
    18     6     7    2
    19     6     8   am
    20     8    11    1
    21    11    12   ar
    22    12    13   ar
    23    13    14   ar
    24    14    15    1
    25    14    16   ar
    26    16    17   ar
    27     5     9    1
    28     9     1    1
    29    23    18   ar
    30    17    11   ar
    31     8    10    1
