@<TRIPOS>MOLECULE
*****
 51 55 0 0 0
SMALL
GASTEIGER

@<TRIPOS>ATOM
      1 C          64.1516   87.6278   14.5798 C.3     1  UNL1        0.0780
      2 C          64.6734   87.0151   15.8457 C.3     1  UNL1        0.0096
      3 C          63.7802   88.6702   13.5672 C.3     1  UNL1        0.0154
      4 C          63.1568   88.2625   12.2652 C.3     1  UNL1        0.0452
      5 C          62.9047   86.8124   11.9759 C.3     1  UNL1        0.1019
      6 N          63.2761   85.7700   12.9885 N.am    1  UNL1       -0.2770
      7 C          63.8995   86.1777   14.2905 C.2     1  UNL1        0.2254
      8 O          64.2708   85.1353   15.3032 O.2     1  UNL1       -0.2749
      9 C          62.2813   86.4047   10.6738 C.ar    1  UNL1       -0.0017
     10 C          60.7922   86.4652   10.5039 C.ar    1  UNL1       -0.0017
     11 C          60.1688   86.0575    9.2019 C.ar    1  UNL1        0.0134
     12 C          61.0345   85.5894    8.0700 C.ar    1  UNL1        0.0850
     13 CL         60.4111   85.1817    6.7679 Cl      1  UNL1       -0.0799
     14 C          62.5236   85.5289    8.2399 C.ar    1  UNL1        0.1503
     15 F          63.3893   85.0608    7.1079 F       1  UNL1       -0.2033
     16 C          63.1470   85.9366    9.5419 C.ar    1  UNL1        0.0278
     17 C          62.7855   89.3049   11.2525 C.ar    1  UNL1       -0.0197
     18 C          63.6420   90.5246   11.0831 C.ar    1  UNL1       -0.0042
     19 C          63.2707   91.5670   10.0704 C.ar    1  UNL1        0.0005
     20 C          62.0429   91.3898    9.2273 C.ar    1  UNL1        0.0114
     21 C          61.1864   90.1701    9.3966 C.ar    1  UNL1        0.0574
     22 CL         59.9586   89.9929    8.5534 Cl      1  UNL1       -0.0823
     23 C          61.5577   89.1276   10.4093 C.ar    1  UNL1        0.0072
     24 C          64.5849   88.8651   15.3088 C.3     1  UNL1        0.0940
     25 N          66.0534   90.6083   14.0620 N.am    1  UNL1       -0.2838
     26 C          64.7138   90.1642   14.5702 C.2     1  UNL1        0.2266
     27 O          63.5031   91.0194   14.3399 O.2     1  UNL1       -0.2748
     28 H          66.8480   90.0471   14.2131 H       1  UNL1        0.1549
     29 C          66.5155   93.2076   11.0988 C.ar    1  UNL1        0.1410
     30 C          66.3867   91.9084   11.8374 C.ar    1  UNL1        0.0516
     31 C          66.1822   91.9076   13.3234 C.ar    1  UNL1        0.0533
     32 C          66.1067   93.2058   14.0708 C.ar    1  UNL1        0.0149
     33 C          66.2356   94.5050   13.3323 C.ar    1  UNL1        0.0054
     34 C          66.4400   94.5059   11.8462 C.ar    1  UNL1        0.0480
     35 C          66.5689   95.8051   11.1077 C.2     1  UNL1        0.0758
     36 O          67.7612   96.0554   10.2327 O.co2   1  UNL1       -0.5445
     37 O          65.5054   96.8541   11.2442 O.co2   1  UNL1       -0.5445
     38 C          68.0688   92.8863    9.0411 C.3     1  UNL1        0.2525
     39 O          66.7200   93.2085    9.6128 O.3     1  UNL1       -0.4713
     40 C          63.0240   84.3199   12.6993 C.3     1  UNL1        0.0991
     41 C          63.8116   83.6201   11.6316 C.3     1  UNL1        0.0200
     42 C          63.9143   83.0818   10.2353 C.3     1  UNL1        0.0018
     43 C          65.0728   82.9464   11.1785 C.3     1  UNL1        0.0018
     44 C          61.9843   83.5696   13.4778 C.3     1  UNL1        0.1703
     45 S          62.1200   82.0891   13.6773 S.O2    1  UNL1       -0.0115
     46 O          61.6016   81.8545   12.2894 O.2     1  UNL1       -0.1730
     47 O          62.6384   82.3236   15.0653 O.2     1  UNL1       -0.1730
     48 C          62.2557   80.6086   13.8768 C.3     1  UNL1        0.1108
     49 C          60.7713   80.4976   14.0625 C.3     1  UNL1        0.0236
     50 C          63.7399   80.7196   13.6911 C.3     1  UNL1        0.0236
     51 C          62.3912   79.1282   14.0763 C.3     1  UNL1        0.0236
@<TRIPOS>UNITY_ATOM_ATTR
36 1
charge -1
@<TRIPOS>BOND
     1    38    39    1
     2    39    29    1
     3    29    30   ar
     4    30    31   ar
     5    31    25    1
     6    25    26   am
     7    26    27    2
     8    26    24    1
     9    24     1    1
    10     1     2    1
    11     1     3    1
    12     3     4    1
    13     4    17    1
    14    17    18   ar
    15    18    19   ar
    16    19    20   ar
    17    20    21   ar
    18    21    22    1
    19    21    23   ar
    20     4     5    1
    21     5     9    1
    22     9    10   ar
    23    10    11   ar
    24    11    12   ar
    25    12    13    1
    26    12    14   ar
    27    14    15    1
    28    14    16   ar
    29     5     6    1
    30     6    40    1
    31    40    44    1
    32    44    45    1
    33    45    46    2
    34    45    47    2
    35    45    48    1
    36    48    49    1
    37    48    50    1
    38    48    51    1
    39    40    41    1
    40    41    42    1
    41    42    43    1
    42     6     7   am
    43     7     8    2
    44    31    32   ar
    45    32    33   ar
    46    33    34   ar
    47    34    35    1
    48    35    36   ar
    49    35    37   ar
    50    34    29   ar
    51     7     1    1
    52    23    17   ar
    53    16     9   ar
    54    43    41    1
    55    25    28    1
@<TRIPOS>MOLECULE
*****
 51 55 0 0 0
SMALL
GASTEIGER

@<TRIPOS>ATOM
      1 C          63.7730   86.9411   14.7167 C.3     1  UNL1        0.0780
      2 C          64.3495   86.1796   15.8733 C.3     1  UNL1        0.0096
      3 C          63.3017   88.0966   13.8844 C.3     1  UNL1        0.0154
      4 C          62.7277   87.8533   12.5200 C.3     1  UNL1        0.0452
      5 C          62.6249   86.4546   11.9881 C.3     1  UNL1        0.1019
      6 N          63.0962   85.2992   12.8204 N.am    1  UNL1       -0.2770
      7 C          63.6702   85.5424   14.1847 C.2     1  UNL1        0.2254
      8 O          64.1415   84.3870   15.0170 O.2     1  UNL1       -0.2749
      9 C          62.0509   86.2114   10.6237 C.ar    1  UNL1       -0.0017
     10 C          60.6252   86.5768   10.3339 C.ar    1  UNL1       -0.0017
     11 C          60.0512   86.3335    8.9696 C.ar    1  UNL1        0.0134
     12 C          60.9028   85.7248    7.8952 C.ar    1  UNL1        0.0850
     13 CL         60.3288   85.4816    6.5309 Cl      1  UNL1       -0.0799
     14 C          62.3285   85.3595    8.1850 C.ar    1  UNL1        0.1503
     15 F          63.1801   84.7508    7.1107 F       1  UNL1       -0.2033
     16 C          62.9025   85.6027    9.5494 C.ar    1  UNL1        0.0278
     17 C          62.2564   89.0088   11.6877 C.ar    1  UNL1       -0.0197
     18 C          63.1548   89.5925   10.6378 C.ar    1  UNL1       -0.0042
     19 C          62.6836   90.7480    9.8055 C.ar    1  UNL1        0.0005
     20 C          61.3140   91.3198   10.0230 C.ar    1  UNL1        0.0114
     21 C          60.4156   90.7361   11.0729 C.ar    1  UNL1        0.0574
     22 CL         59.0461   91.3079   11.2904 Cl      1  UNL1       -0.0823
     23 C          60.8869   89.5806   11.9052 C.ar    1  UNL1        0.0072
     24 C          64.0760   88.0754   15.6503 C.3     1  UNL1        0.0940
     25 N          65.4932   89.7158   14.2183 N.am    1  UNL1       -0.2838
     26 C          64.3125   89.4527   15.1053 C.2     1  UNL1        0.2266
     27 O          63.3682   90.5670   15.4472 O.2     1  UNL1       -0.2748
     28 H          66.1129   88.9845   13.9939 H       1  UNL1        0.1549
     29 C          66.8469   93.4303   13.8719 C.ar    1  UNL1        0.1410
     30 C          66.6105   92.0529   14.4169 C.ar    1  UNL1        0.0516
     31 C          65.7296   91.0932   13.6733 C.ar    1  UNL1        0.0533
     32 C          65.0853   91.5107   12.3847 C.ar    1  UNL1        0.0149
     33 C          65.3218   92.8880   11.8398 C.ar    1  UNL1        0.0054
     34 C          66.2026   93.8478   12.5834 C.ar    1  UNL1        0.0480
     35 C          66.4390   95.2252   12.0383 C.2     1  UNL1        0.0758
     36 O          66.0503   96.4281   12.8456 O.co2   1  UNL1       -0.5445
     37 O          67.0642   95.3995   10.6860 O.co2   1  UNL1       -0.5445
     38 C          68.6035   93.8961   15.7286 C.3     1  UNL1        0.2525
     39 O          67.7278   94.3900   14.6155 O.3     1  UNL1       -0.4713
     40 C          62.9934   83.9004   12.2885 C.3     1  UNL1        0.0991
     41 C          64.1003   83.3337   11.4496 C.3     1  UNL1        0.0200
     42 C          65.4337   82.6549   11.3449 C.3     1  UNL1        0.0018
     43 C          64.6839   83.0311   10.1014 C.3     1  UNL1        0.0018
     44 C          61.7837   83.0683   12.5955 C.3     1  UNL1        0.1703
     45 S          61.9451   81.7032   13.1962 S.O2    1  UNL1       -0.0115
     46 O          61.6714   82.2700   14.5577 O.2     1  UNL1       -0.1730
     47 O          62.2187   81.1365   11.8345 O.2     1  UNL1       -0.1730
     48 C          62.1064   80.3383   13.7967 C.3     1  UNL1        0.1108
     49 C          60.6329   80.2856   14.0729 C.3     1  UNL1        0.0236
     50 C          63.5798   80.3909   13.5206 C.3     1  UNL1        0.0236
     51 C          62.2676   78.9733   14.3973 C.3     1  UNL1        0.0236
@<TRIPOS>UNITY_ATOM_ATTR
36 1
charge -1
@<TRIPOS>BOND
     1    38    39    1
     2    39    29    1
     3    29    30   ar
     4    30    31   ar
     5    31    25    1
     6    25    26   am
     7    26    27    2
     8    26    24    1
     9    24     1    1
    10     1     2    1
    11     1     3    1
    12     3     4    1
    13     4    17    1
    14    17    18   ar
    15    18    19   ar
    16    19    20   ar
    17    20    21   ar
    18    21    22    1
    19    21    23   ar
    20     4     5    1
    21     5     9    1
    22     9    10   ar
    23    10    11   ar
    24    11    12   ar
    25    12    13    1
    26    12    14   ar
    27    14    15    1
    28    14    16   ar
    29     5     6    1
    30     6    40    1
    31    40    44    1
    32    44    45    1
    33    45    46    2
    34    45    47    2
    35    45    48    1
    36    48    49    1
    37    48    50    1
    38    48    51    1
    39    40    41    1
    40    41    42    1
    41    42    43    1
    42     6     7   am
    43     7     8    2
    44    31    32   ar
    45    32    33   ar
    46    33    34   ar
    47    34    35    1
    48    35    36   ar
    49    35    37   ar
    50    34    29   ar
    51     7     1    1
    52    23    17   ar
    53    16     9   ar
    54    43    41    1
    55    25    28    1
@<TRIPOS>MOLECULE
*****
 51 55 0 0 0
SMALL
GASTEIGER

@<TRIPOS>ATOM
      1 C          62.5597   90.6642   10.9036 C.3     1  UNL1        0.0780
      2 C          62.1532   91.1048    9.5286 C.3     1  UNL1        0.0096
      3 C          62.5453   89.9247   12.2085 C.3     1  UNL1        0.0154
      4 C          63.6017   90.1988   13.2376 C.3     1  UNL1        0.0452
      5 C          64.6724   91.2124   12.9618 C.3     1  UNL1        0.1019
      6 N          64.6868   91.9519   11.6568 N.am    1  UNL1       -0.2770
      7 C          63.6304   91.6778   10.6277 C.2     1  UNL1        0.2254
      8 O          63.6448   92.4173    9.3228 O.2     1  UNL1       -0.2749
      9 C          65.7288   91.4866   13.9908 C.ar    1  UNL1       -0.0017
     10 C          65.3346   91.8473   15.3924 C.ar    1  UNL1       -0.0017
     11 C          66.3910   92.1215   16.4215 C.ar    1  UNL1        0.0134
     12 C          67.8414   92.0348   16.0489 C.ar    1  UNL1        0.0850
     13 CL         68.8978   92.3090   17.0780 Cl      1  UNL1       -0.0799
     14 C          68.2355   91.6740   14.6473 C.ar    1  UNL1        0.1503
     15 F          69.6859   91.5874   14.2747 F       1  UNL1       -0.2033
     16 C          67.1792   91.3999   13.6182 C.ar    1  UNL1        0.0278
     17 C          63.5873   89.4593   14.5426 C.ar    1  UNL1       -0.0197
     18 C          63.1078   90.1447   15.7878 C.ar    1  UNL1       -0.0042
     19 C          63.0934   89.4052   17.0927 C.ar    1  UNL1        0.0005
     20 C          63.5585   87.9804   17.1525 C.ar    1  UNL1        0.0114
     21 C          64.0380   87.2950   15.9075 C.ar    1  UNL1        0.0574
     22 CL         64.5031   85.8702   15.9673 Cl      1  UNL1       -0.0823
     23 C          64.0524   88.0346   14.6024 C.ar    1  UNL1        0.0072
     24 C          61.3478   89.8036   10.7020 C.3     1  UNL1        0.0940
     25 N          62.7201   87.5983   10.6440 N.am    1  UNL1       -0.2838
     26 C          61.4354   88.3220   10.9193 C.2     1  UNL1        0.2266
     27 O          60.2384   87.5641   11.4119 O.2     1  UNL1       -0.2748
     28 H          63.5058   88.0957   10.3206 H       1  UNL1        0.1549
     29 C          63.0339   84.0879   12.4684 C.ar    1  UNL1        0.1410
     30 C          62.9464   85.5694   12.2510 C.ar    1  UNL1        0.0516
     31 C          62.8077   86.1167   10.8613 C.ar    1  UNL1        0.0533
     32 C          62.7567   85.1824    9.6890 C.ar    1  UNL1        0.0149
     33 C          62.8443   83.7008    9.9064 C.ar    1  UNL1        0.0054
     34 C          62.9829   83.1536   11.2961 C.ar    1  UNL1        0.0480
     35 C          63.0705   81.6719   11.5134 C.2     1  UNL1        0.0758
     36 O          63.1523   81.1218   12.9065 O.co2   1  UNL1       -0.5445
     37 O          63.0763   80.7405   10.3377 O.co2   1  UNL1       -0.5445
     38 C          62.0196   83.6208   14.8142 C.3     1  UNL1        0.2525
     39 O          63.1726   83.5406   13.8581 O.3     1  UNL1       -0.4713
     40 C          65.7575   92.9655   11.3808 C.3     1  UNL1        0.0991
     41 C          66.0282   94.0592   12.3711 C.3     1  UNL1        0.0200
     42 C          66.0735   95.5186   12.7146 C.3     1  UNL1        0.0018
     43 C          66.4519   94.4940   13.7427 C.3     1  UNL1        0.0018
     44 C          66.5575   92.8855   10.1145 C.3     1  UNL1        0.1703
     45 S          66.9271   94.1402    9.3802 S.O2    1  UNL1       -0.0115
     46 O          68.3468   93.6659    9.2841 O.2     1  UNL1       -0.1730
     47 O          65.5073   94.6146    9.4763 O.2     1  UNL1       -0.1730
     48 C          67.2967   95.3949    8.6460 C.3     1  UNL1        0.1108
     49 C          66.3856   96.1852    9.5378 C.3     1  UNL1        0.0236
     50 C          68.2077   94.6047    7.7541 C.3     1  UNL1        0.0236
     51 C          67.6662   96.6497    7.9118 C.3     1  UNL1        0.0236
@<TRIPOS>UNITY_ATOM_ATTR
36 1
charge -1
@<TRIPOS>BOND
     1    38    39    1
     2    39    29    1
     3    29    30   ar
     4    30    31   ar
     5    31    25    1
     6    25    26   am
     7    26    27    2
     8    26    24    1
     9    24     1    1
    10     1     2    1
    11     1     3    1
    12     3     4    1
    13     4    17    1
    14    17    18   ar
    15    18    19   ar
    16    19    20   ar
    17    20    21   ar
    18    21    22    1
    19    21    23   ar
    20     4     5    1
    21     5     9    1
    22     9    10   ar
    23    10    11   ar
    24    11    12   ar
    25    12    13    1
    26    12    14   ar
    27    14    15    1
    28    14    16   ar
    29     5     6    1
    30     6    40    1
    31    40    44    1
    32    44    45    1
    33    45    46    2
    34    45    47    2
    35    45    48    1
    36    48    49    1
    37    48    50    1
    38    48    51    1
    39    40    41    1
    40    41    42    1
    41    42    43    1
    42     6     7   am
    43     7     8    2
    44    31    32   ar
    45    32    33   ar
    46    33    34   ar
    47    34    35    1
    48    35    36   ar
    49    35    37   ar
    50    34    29   ar
    51     7     1    1
    52    23    17   ar
    53    16     9   ar
    54    43    41    1
    55    25    28    1
@<TRIPOS>MOLECULE
*****
 51 55 0 0 0
SMALL
GASTEIGER

@<TRIPOS>ATOM
      1 C          62.8005   88.8204   12.9129 C.3     1  UNL1        0.0780
      2 C          63.1695   89.6694   14.0932 C.3     1  UNL1        0.0096
      3 C          62.2695   88.4367   11.5635 C.3     1  UNL1        0.0154
      4 C          62.3331   87.0080   11.1111 C.3     1  UNL1        0.0452
      5 C          62.9276   85.9630   12.0079 C.3     1  UNL1        0.1019
      6 N          63.4586   86.3466   13.3573 N.am    1  UNL1       -0.2770
      7 C          63.3950   87.7754   13.8098 C.2     1  UNL1        0.2254
      8 O          63.9260   88.1590   15.1592 O.2     1  UNL1       -0.2749
      9 C          62.9912   84.5342   11.5554 C.ar    1  UNL1       -0.0017
     10 C          61.8492   83.6051   11.8427 C.ar    1  UNL1       -0.0017
     11 C          61.9127   82.1763   11.3903 C.ar    1  UNL1        0.0134
     12 C          63.1183   81.6769   10.6505 C.ar    1  UNL1        0.0850
     13 CL         63.1818   80.2481   10.1980 Cl      1  UNL1       -0.0799
     14 C          64.2602   82.6060   10.3632 C.ar    1  UNL1        0.1503
     15 F          65.4658   82.1065    9.6234 F       1  UNL1       -0.2033
     16 C          64.1967   84.0348   10.8157 C.ar    1  UNL1        0.0278
     17 C          61.8021   86.6243    9.7617 C.ar    1  UNL1       -0.0197
     18 C          62.6590   85.8379    8.8144 C.ar    1  UNL1       -0.0042
     19 C          62.1280   85.4542    7.4650 C.ar    1  UNL1        0.0005
     20 C          60.7402   85.8570    7.0629 C.ar    1  UNL1        0.0114
     21 C          59.8833   86.6434    8.0101 C.ar    1  UNL1        0.0574
     22 CL         58.4955   87.0461    7.6080 Cl      1  UNL1       -0.0823
     23 C          60.4143   87.0271    9.3596 C.ar    1  UNL1        0.0072
     24 C          62.3341   90.1603   12.4259 C.3     1  UNL1        0.0940
     25 N          64.3073   91.8345   12.1949 N.am    1  UNL1       -0.2838
     26 C          63.2316   90.9996   11.5657 C.2     1  UNL1        0.2266
     27 O          63.0533   91.0042   10.0763 O.2     1  UNL1       -0.2748
     28 H          64.4244   91.8315   13.1724 H       1  UNL1        0.1549
     29 C          65.8038   94.9699   10.2765 C.ar    1  UNL1        0.1410
     30 C          64.9064   94.1305   11.1367 C.ar    1  UNL1        0.0516
     31 C          65.2048   92.6739   11.3346 C.ar    1  UNL1        0.0533
     32 C          66.4007   92.0566   10.6722 C.ar    1  UNL1        0.0149
     33 C          67.2981   92.8960    9.8120 C.ar    1  UNL1        0.0054
     34 C          66.9997   94.3526    9.6141 C.ar    1  UNL1        0.0480
     35 C          67.8971   95.1920    8.7538 C.2     1  UNL1        0.0758
     36 O          68.2252   96.5981    9.1602 O.co2   1  UNL1       -0.5445
     37 O          68.4666   94.6252    7.4871 O.co2   1  UNL1       -0.5445
     38 C          64.5128   96.8541    9.0384 C.3     1  UNL1        0.2525
     39 O          65.5053   96.4265   10.0786 O.3     1  UNL1       -0.4713
     40 C          64.0531   85.3017   14.2543 C.3     1  UNL1        0.0991
     41 C          65.5423   85.1985   14.4014 C.3     1  UNL1        0.0200
     42 C          66.8500   84.5934   13.9847 C.3     1  UNL1        0.0018
     43 C          66.8139   85.6251   15.0729 C.3     1  UNL1        0.0018
     44 C          63.1584   84.3597   15.0041 C.3     1  UNL1        0.1703
     45 S          63.1033   82.9110   14.6191 S.O2    1  UNL1       -0.0115
     46 O          61.7162   82.8142   15.1816 O.2     1  UNL1       -0.1730
     47 O          64.4905   83.0079   14.0565 O.2     1  UNL1       -0.1730
     48 C          63.0482   81.4624   14.2340 C.3     1  UNL1        0.1108
     49 C          61.5805   81.4361   14.5426 C.3     1  UNL1        0.0236
     50 C          64.5159   81.4886   13.9254 C.3     1  UNL1        0.0236
     51 C          62.9931   80.0137   13.8490 C.3     1  UNL1        0.0236
@<TRIPOS>UNITY_ATOM_ATTR
36 1
charge -1
@<TRIPOS>BOND
     1    38    39    1
     2    39    29    1
     3    29    30   ar
     4    30    31   ar
     5    31    25    1
     6    25    26   am
     7    26    27    2
     8    26    24    1
     9    24     1    1
    10     1     2    1
    11     1     3    1
    12     3     4    1
    13     4    17    1
    14    17    18   ar
    15    18    19   ar
    16    19    20   ar
    17    20    21   ar
    18    21    22    1
    19    21    23   ar
    20     4     5    1
    21     5     9    1
    22     9    10   ar
    23    10    11   ar
    24    11    12   ar
    25    12    13    1
    26    12    14   ar
    27    14    15    1
    28    14    16   ar
    29     5     6    1
    30     6    40    1
    31    40    44    1
    32    44    45    1
    33    45    46    2
    34    45    47    2
    35    45    48    1
    36    48    49    1
    37    48    50    1
    38    48    51    1
    39    40    41    1
    40    41    42    1
    41    42    43    1
    42     6     7   am
    43     7     8    2
    44    31    32   ar
    45    32    33   ar
    46    33    34   ar
    47    34    35    1
    48    35    36   ar
    49    35    37   ar
    50    34    29   ar
    51     7     1    1
    52    23    17   ar
    53    16     9   ar
    54    43    41    1
    55    25    28    1
