@<TRIPOS>MOLECULE
*****
 15 17 0 0 0
SMALL
GASTEIGER

@<TRIPOS>ATOM
      1 CL         64.4290   83.0259   10.9992 Cl      1  UNL1       -0.0814
      2 C          63.5042   84.0755   10.4578 C.ar    1  UNL1        0.0682
      3 C          63.5391   84.4260    8.9998 C.ar    1  UNL1        0.0119
      4 C          62.6142   85.4756    8.4584 C.ar    1  UNL1       -0.0033
      5 C          61.6545   86.1746    9.3750 C.ar    1  UNL1       -0.0206
      6 C          61.6196   85.8241   10.8330 C.ar    1  UNL1        0.0080
      7 C          62.5444   84.7745   11.3744 C.ar    1  UNL1        0.0679
      8 CL         62.5095   84.4240   12.8325 Cl      1  UNL1       -0.0814
      9 C          60.7297   87.2242    8.8336 C.3     1  UNL1        0.0348
     10 C          59.8649   86.2819    8.0498 C.3     1  UNL1        0.0726
     11 N          58.7997   87.0886    7.3682 N.3     1  UNL1       -0.2972
     12 C          59.0061   88.5294    7.7308 C.3     1  UNL1        0.0689
     13 C          60.1989   88.6132    8.6365 C.3     1  UNL1        0.0211
     14 C          61.4011   88.3858    9.5043 C.3     1  UNL1        0.0072
     15 H          57.8789   86.7813    7.6816 H       1  UNL1        0.1233
@<TRIPOS>BOND
     1     1     2    1
     2     2     3   ar
     3     3     4   ar
     4     4     5   ar
     5     5     9    1
     6     9    10    1
     7    10    11    1
     8    11    12    1
     9    12    13    1
    10    13    14    1
    11     5     6   ar
    12     6     7   ar
    13     7     8    1
    14     7     2   ar
    15    13     9    1
    16    14     9    1
    17    11    15    1
@<TRIPOS>MOLECULE
*****
 15 17 0 0 0
SMALL
GASTEIGER

@<TRIPOS>ATOM
      1 CL         62.3707   89.3016   11.6824 Cl      1  UNL1       -0.0814
      2 C          63.4549   89.9822   12.4643 C.ar    1  UNL1        0.0682
      3 C          63.8915   89.4219   13.7854 C.ar    1  UNL1        0.0119
      4 C          64.9756   90.1025   14.5674 C.ar    1  UNL1       -0.0033
      5 C          65.6231   91.3435   14.0282 C.ar    1  UNL1       -0.0206
      6 C          65.1864   91.9038   12.7071 C.ar    1  UNL1        0.0080
      7 C          64.1023   91.2232   11.9252 C.ar    1  UNL1        0.0679
      8 CL         63.6657   91.7836   10.6040 Cl      1  UNL1       -0.0814
      9 C          66.7072   92.0241   14.8102 C.3     1  UNL1        0.0348
     10 C          67.8028   91.7628   13.8195 C.3     1  UNL1        0.0726
     11 N          69.0686   92.3591   14.3601 N.3     1  UNL1       -0.2972
     12 C          68.7553   92.9889   15.6850 C.3     1  UNL1        0.0689
     13 C          67.2959   92.7819   15.9631 C.3     1  UNL1        0.0211
     14 C          65.8383   92.4277   15.9643 C.3     1  UNL1        0.0072
     15 H          69.4210   93.0664   13.7152 H       1  UNL1        0.1233
@<TRIPOS>BOND
     1     1     2    1
     2     2     3   ar
     3     3     4   ar
     4     4     5   ar
     5     5     9    1
     6     9    10    1
     7    10    11    1
     8    11    12    1
     9    12    13    1
    10    13    14    1
    11     5     6   ar
    12     6     7   ar
    13     7     8    1
    14     7     2   ar
    15    13     9    1
    16    14     9    1
    17    11    15    1
@<TRIPOS>MOLECULE
*****
 15 17 0 0 0
SMALL
GASTEIGER

@<TRIPOS>ATOM
      1 CL         64.4819   82.8617   11.1083 Cl      1  UNL1       -0.0814
      2 C          63.5887   83.9266   10.5443 C.ar    1  UNL1        0.0682
      3 C          63.6632   84.2737    9.0870 C.ar    1  UNL1        0.0119
      4 C          62.7700   85.3386    8.5230 C.ar    1  UNL1       -0.0033
      5 C          61.8022   86.0564    9.4164 C.ar    1  UNL1       -0.0206
      6 C          61.7277   85.7093   10.8737 C.ar    1  UNL1        0.0080
      7 C          62.6209   84.6444   11.4377 C.ar    1  UNL1        0.0679
      8 CL         62.5464   84.2973   12.8951 Cl      1  UNL1       -0.0814
      9 C          60.9090   87.1214    8.8524 C.3     1  UNL1        0.0348
     10 C          61.5362   88.2626    9.5969 C.3     1  UNL1        0.0726
     11 N          60.8132   89.5196    9.2132 N.3     1  UNL1       -0.2972
     12 C          59.7390   89.1552    8.2316 C.3     1  UNL1        0.0689
     13 C          59.7983   87.6730    8.0086 C.3     1  UNL1        0.0211
     14 C          60.0950   86.2028    7.9900 C.3     1  UNL1        0.0072
     15 H          61.4650   90.1769    8.7849 H       1  UNL1        0.1233
@<TRIPOS>BOND
     1     1     2    1
     2     2     3   ar
     3     3     4   ar
     4     4     5   ar
     5     5     9    1
     6     9    10    1
     7    10    11    1
     8    11    12    1
     9    12    13    1
    10    13    14    1
    11     5     6   ar
    12     6     7   ar
    13     7     8    1
    14     7     2   ar
    15    13     9    1
    16    14     9    1
    17    11    15    1
@<TRIPOS>MOLECULE
*****
 15 17 0 0 0
SMALL
GASTEIGER

@<TRIPOS>ATOM
      1 CL         63.0122   80.5266   10.3485 Cl      1  UNL1       -0.0814
      2 C          63.1475   81.5185   11.4656 C.ar    1  UNL1        0.0682
      3 C          62.8474   81.1052   12.8759 C.ar    1  UNL1        0.0119
      4 C          62.9827   82.0971   13.9930 C.ar    1  UNL1       -0.0033
      5 C          63.4182   83.5022   13.6998 C.ar    1  UNL1       -0.0206
      6 C          63.7183   83.9154   12.2894 C.ar    1  UNL1        0.0080
      7 C          63.5829   82.9236   11.1723 C.ar    1  UNL1        0.0679
      8 CL         63.8831   83.3369    9.7619 Cl      1  UNL1       -0.0814
      9 C          63.5535   84.4940   14.8169 C.3     1  UNL1        0.0348
     10 C          62.1489   84.3518   15.3239 C.3     1  UNL1        0.0726
     11 N          61.9847   85.2705   16.4981 N.3     1  UNL1       -0.2972
     12 C          63.2878   85.9806   16.7169 C.3     1  UNL1        0.0689
     13 C          64.2573   85.5007   15.6778 C.3     1  UNL1        0.0211
     14 C          64.9863   84.8437   14.5434 C.3     1  UNL1        0.0072
     15 H          61.7410   84.7307   17.3286 H       1  UNL1        0.1233
@<TRIPOS>BOND
     1     1     2    1
     2     2     3   ar
     3     3     4   ar
     4     4     5   ar
     5     5     9    1
     6     9    10    1
     7    10    11    1
     8    11    12    1
     9    12    13    1
    10    13    14    1
    11     5     6   ar
    12     6     7   ar
    13     7     8    1
    14     7     2   ar
    15    13     9    1
    16    14     9    1
    17    11    15    1
@<TRIPOS>MOLECULE
*****
 15 17 0 0 0
SMALL
GASTEIGER

@<TRIPOS>ATOM
      1 CL         64.3766   90.4428   14.9552 Cl      1  UNL1       -0.0814
      2 C          64.9909   91.1666   13.7939 C.ar    1  UNL1        0.0682
      3 C          64.2204   91.3261   12.5169 C.ar    1  UNL1        0.0119
      4 C          64.8347   92.0499   11.3556 C.ar    1  UNL1       -0.0033
      5 C          66.2197   92.6142   11.4713 C.ar    1  UNL1       -0.0206
      6 C          66.9902   92.4548   12.7482 C.ar    1  UNL1        0.0080
      7 C          66.3759   91.7310   13.9096 C.ar    1  UNL1        0.0679
      8 CL         67.1465   91.5715   15.1866 Cl      1  UNL1       -0.0814
      9 C          66.8340   93.3380   10.3099 C.3     1  UNL1        0.0348
     10 C          65.9411   94.5410   10.3847 C.3     1  UNL1        0.0726
     11 N          66.3419   95.4846    9.2898 N.3     1  UNL1       -0.2972
     12 C          67.4826   94.8648    8.5383 C.3     1  UNL1        0.0689
     13 C          67.7868   93.5382    9.1688 C.3     1  UNL1        0.0211
     14 C          67.8555   92.2864    9.9924 C.3     1  UNL1        0.0072
     15 H          66.6349   96.3756    9.6907 H       1  UNL1        0.1233
@<TRIPOS>BOND
     1     1     2    1
     2     2     3   ar
     3     3     4   ar
     4     4     5   ar
     5     5     9    1
     6     9    10    1
     7    10    11    1
     8    11    12    1
     9    12    13    1
    10    13    14    1
    11     5     6   ar
    12     6     7   ar
    13     7     8    1
    14     7     2   ar
    15    13     9    1
    16    14     9    1
    17    11    15    1
@<TRIPOS>MOLECULE
*****
 15 17 0 0 0
SMALL
GASTEIGER

@<TRIPOS>ATOM
      1 CL         64.2621   90.2837   14.8954 Cl      1  UNL1       -0.0814
      2 C          64.9274   91.0693   13.8044 C.ar    1  UNL1        0.0682
      3 C          66.2891   91.6575   14.0272 C.ar    1  UNL1        0.0119
      4 C          66.9544   92.4431   12.9362 C.ar    1  UNL1       -0.0033
      5 C          66.2580   92.6404   11.6224 C.ar    1  UNL1       -0.0206
      6 C          64.8963   92.0522   11.3997 C.ar    1  UNL1        0.0080
      7 C          64.2310   91.2667   12.4906 C.ar    1  UNL1        0.0679
      8 CL         62.8692   90.6785   12.2678 Cl      1  UNL1       -0.0814
      9 C          66.9233   93.4260   10.5315 C.3     1  UNL1        0.0348
     10 C          66.2727   94.7364   10.8626 C.3     1  UNL1        0.0726
     11 N          66.7729   95.7616    9.8886 N.3     1  UNL1       -0.2972
     12 C          67.7327   95.0848    8.9554 C.3     1  UNL1        0.0689
     13 C          67.8256   93.6413    9.3527 C.3     1  UNL1        0.0211
     14 C          67.7131   92.2799    9.9722 C.3     1  UNL1        0.0072
     15 H          67.2483   96.5121   10.3896 H       1  UNL1        0.1233
@<TRIPOS>BOND
     1     1     2    1
     2     2     3   ar
     3     3     4   ar
     4     4     5   ar
     5     5     9    1
     6     9    10    1
     7    10    11    1
     8    11    12    1
     9    12    13    1
    10    13    14    1
    11     5     6   ar
    12     6     7   ar
    13     7     8    1
    14     7     2   ar
    15    13     9    1
    16    14     9    1
    17    11    15    1
@<TRIPOS>MOLECULE
*****
 15 17 0 0 0
SMALL
GASTEIGER

@<TRIPOS>ATOM
      1 CL         62.9544   84.9172    7.5734 Cl      1  UNL1       -0.0814
      2 C          63.0149   84.7705    9.0649 C.ar    1  UNL1        0.0682
      3 C          63.8149   83.6594    9.6774 C.ar    1  UNL1        0.0119
      4 C          63.8755   83.5127   11.1690 C.ar    1  UNL1       -0.0033
      5 C          63.1360   84.4772   12.0481 C.ar    1  UNL1       -0.0206
      6 C          62.3359   85.5883   11.4356 C.ar    1  UNL1        0.0080
      7 C          62.2754   85.7350    9.9440 C.ar    1  UNL1        0.0679
      8 CL         61.4753   86.8463    9.3316 Cl      1  UNL1       -0.0814
      9 C          63.1965   84.3305   13.5397 C.3     1  UNL1        0.0348
     10 C          62.5248   82.9903   13.5928 C.3     1  UNL1        0.0726
     11 N          62.4423   82.5698   15.0303 N.3     1  UNL1       -0.2972
     12 C          63.0630   83.6502   15.8656 C.3     1  UNL1        0.0689
     13 C          63.5291   84.7383   14.9443 C.3     1  UNL1        0.0211
     14 C          63.8808   85.6400   13.7984 C.3     1  UNL1        0.0072
     15 H          62.9485   81.6945   15.1646 H       1  UNL1        0.1233
@<TRIPOS>BOND
     1     1     2    1
     2     2     3   ar
     3     3     4   ar
     4     4     5   ar
     5     5     9    1
     6     9    10    1
     7    10    11    1
     8    11    12    1
     9    12    13    1
    10    13    14    1
    11     5     6   ar
    12     6     7   ar
    13     7     8    1
    14     7     2   ar
    15    13     9    1
    16    14     9    1
    17    11    15    1
@<TRIPOS>MOLECULE
*****
 15 17 0 0 0
SMALL
GASTEIGER

@<TRIPOS>ATOM
      1 CL         63.4873   88.5554   12.6263 Cl      1  UNL1       -0.0814
      2 C          63.3125   87.0666   12.6803 C.ar    1  UNL1        0.0682
      3 C          63.9362   86.2781   13.7935 C.ar    1  UNL1        0.0119
      4 C          63.7615   84.7893   13.8475 C.ar    1  UNL1       -0.0033
      5 C          62.9629   84.0890   12.7883 C.ar    1  UNL1       -0.0206
      6 C          62.3391   84.8775   11.6752 C.ar    1  UNL1        0.0080
      7 C          62.5139   86.3663   11.6212 C.ar    1  UNL1        0.0679
      8 CL         61.8901   87.1549   10.5080 Cl      1  UNL1       -0.0814
      9 C          62.7881   82.6002   12.8423 C.3     1  UNL1        0.0348
     10 C          62.2806   82.5530   14.2531 C.3     1  UNL1        0.0726
     11 N          62.0074   81.1194   14.5997 N.3     1  UNL1       -0.2972
     12 C          62.3460   80.2806   13.4030 C.3     1  UNL1        0.0689
     13 C          62.8285   81.1958   12.3170 C.3     1  UNL1        0.0211
     14 C          63.2591   82.3362   11.4428 C.3     1  UNL1        0.0072
     15 H          61.0223   81.0023   14.8369 H       1  UNL1        0.1233
@<TRIPOS>BOND
     1     1     2    1
     2     2     3   ar
     3     3     4   ar
     4     4     5   ar
     5     5     9    1
     6     9    10    1
     7    10    11    1
     8    11    12    1
     9    12    13    1
    10    13    14    1
    11     5     6   ar
    12     6     7   ar
    13     7     8    1
    14     7     2   ar
    15    13     9    1
    16    14     9    1
    17    11    15    1
@<TRIPOS>MOLECULE
*****
 15 17 0 0 0
SMALL
GASTEIGER

@<TRIPOS>ATOM
      1 CL         64.3003   83.3443   15.0995 Cl      1  UNL1       -0.0814
      2 C          63.7344   83.9428   13.8460 C.ar    1  UNL1        0.0682
      3 C          63.1527   83.0540   12.7869 C.ar    1  UNL1        0.0119
      4 C          62.5867   83.6525   11.5333 C.ar    1  UNL1       -0.0033
      5 C          62.6024   85.1398   11.3388 C.ar    1  UNL1       -0.0206
      6 C          63.1842   86.0285   12.3979 C.ar    1  UNL1        0.0080
      7 C          63.7501   85.4300   13.6515 C.ar    1  UNL1        0.0679
      8 CL         64.3319   86.3188   14.7106 Cl      1  UNL1       -0.0814
      9 C          62.0365   85.7383   10.0852 C.3     1  UNL1        0.0348
     10 C          60.9595   86.5325   10.7630 C.3     1  UNL1        0.0726
     11 N          60.1931   87.2709    9.7059 N.3     1  UNL1       -0.2972
     12 C          60.7965   86.9330    8.3748 C.3     1  UNL1        0.0689
     13 C          61.9357   85.9858    8.6092 C.3     1  UNL1        0.0211
     14 C          62.9951   85.0692    9.1453 C.3     1  UNL1        0.0072
     15 H          60.2572   88.2755    9.8700 H       1  UNL1        0.1233
@<TRIPOS>BOND
     1     1     2    1
     2     2     3   ar
     3     3     4   ar
     4     4     5   ar
     5     5     9    1
     6     9    10    1
     7    10    11    1
     8    11    12    1
     9    12    13    1
    10    13    14    1
    11     5     6   ar
    12     6     7   ar
    13     7     8    1
    14     7     2   ar
    15    13     9    1
    16    14     9    1
    17    11    15    1
