@<TRIPOS>MOLECULE
*****
 30 32 0 0 0
SMALL
GASTEIGER

@<TRIPOS>ATOM
      1 C          63.6009   89.1020   13.5945 C.ar    1  UNL1        0.1549
      2 C          64.2479   88.5145   14.8136 C.ar    1  UNL1        0.0396
      3 C          64.3729   87.0263   14.9529 C.ar    1  UNL1        0.0234
      4 C          63.8509   86.1254   13.8731 C.ar    1  UNL1        0.1261
      5 C          63.2039   86.7128   12.6540 C.ar    1  UNL1        0.0335
      6 C          63.0789   88.2012   12.5147 C.ar    1  UNL1        0.1042
      7 S          63.9760   84.6371   14.0125 S.O2    1  UNL1        0.0747
      8 O          65.4580   84.7787   14.1952 O.2     1  UNL1       -0.1499
      9 O          62.4939   84.4955   13.8297 O.2     1  UNL1       -0.1499
     10 N          64.1010   83.1489   14.1518 N.pl3   1  UNL1       -0.1989
     11 H          64.4068   82.7580   15.0020 H       1  UNL1        0.1753
     12 C          63.7599   82.2561   12.9957 C.ar    1  UNL1        0.1472
     13 C          64.1200   82.6672   11.5988 C.ar    1  UNL1        0.0379
     14 C          63.7790   81.7744   10.4427 C.ar    1  UNL1        0.0342
     15 C          63.0778   80.4705   10.6834 C.ar    1  UNL1        0.1593
     16 F          62.7368   79.5777    9.5273 F       1  UNL1       -0.2025
     17 C          62.7177   80.0593   12.0803 C.ar    1  UNL1        0.1299
     18 N          63.0587   80.9521   13.2364 N.ar    1  UNL1       -0.2256
     19 C          62.4318   88.7886   11.2956 C.1     1  UNL1        0.1035
     20 N          61.7848   89.3760   10.0765 N.1     1  UNL1       -0.1907
     21 O          63.4759   90.5902   13.4552 O.3     1  UNL1       -0.4528
     22 C          66.4831   92.8822   11.0152 C.ar    1  UNL1        0.0792
     23 C          65.0893   92.6863   10.4966 C.ar    1  UNL1        0.0143
     24 C          64.0869   91.9223   11.3099 C.ar    1  UNL1        0.0382
     25 C          64.4783   91.3542   12.6419 C.ar    1  UNL1        0.1462
     26 C          65.8720   91.5502   13.1605 C.ar    1  UNL1        0.0496
     27 C          66.8744   92.3142   12.3472 C.ar    1  UNL1        0.0703
     28 CL         68.2682   92.5101   12.8659 Cl      1  UNL1       -0.0814
     29 N          68.4879   94.4102    9.3886 N.1     1  UNL1       -0.1908
     30 C          67.4855   93.6462   10.2019 C.1     1  UNL1        0.1013
@<TRIPOS>BOND
     1    29    30    3
     2    30    22    1
     3    22    23   ar
     4    23    24   ar
     5    24    25   ar
     6    25    21    1
     7    21     1    1
     8     1     2   ar
     9     2     3   ar
    10     3     4   ar
    11     4     7    1
    12     7     8    2
    13     7     9    2
    14     7    10    1
    15    10    12    1
    16    12    13   ar
    17    13    14   ar
    18    14    15   ar
    19    15    16    1
    20    15    17   ar
    21    17    18   ar
    22     4     5   ar
    23     5     6   ar
    24     6    19    1
    25    19    20    3
    26    25    26   ar
    27    26    27   ar
    28    27    28    1
    29    27    22   ar
    30     6     1   ar
    31    18    12   ar
    32    10    11    1
@<TRIPOS>MOLECULE
*****
 30 32 0 0 0
SMALL
GASTEIGER

@<TRIPOS>ATOM
      1 C          63.8621   88.9311   13.7904 C.ar    1  UNL1        0.1549
      2 C          64.4326   88.2647   15.0072 C.ar    1  UNL1        0.0396
      3 C          64.4318   86.7684   15.1127 C.ar    1  UNL1        0.0234
      4 C          63.8605   85.9385   14.0014 C.ar    1  UNL1        0.1261
      5 C          63.2900   86.6049   12.7847 C.ar    1  UNL1        0.0335
      6 C          63.2908   88.1012   12.6792 C.ar    1  UNL1        0.1042
      7 S          63.8597   84.4422   14.1070 S.O2    1  UNL1        0.0747
      8 O          62.3624   84.4366   14.0174 O.2     1  UNL1       -0.1499
      9 O          65.3570   84.4477   14.1965 O.2     1  UNL1       -0.1499
     10 N          63.8590   82.9459   14.2125 N.pl3   1  UNL1       -0.1989
     11 H          64.0401   82.5134   15.0781 H       1  UNL1        0.1753
     12 C          63.5822   82.1086   12.9991 C.ar    1  UNL1        0.1472
     13 C          63.9207   82.6309   11.6343 C.ar    1  UNL1        0.0379
     14 C          63.6440   81.7936   10.4209 C.ar    1  UNL1        0.0342
     15 C          63.0288   80.4340   10.5723 C.ar    1  UNL1        0.1593
     16 F          62.7521   79.5967    9.3589 F       1  UNL1       -0.2025
     17 C          62.6903   79.9117   11.9371 C.ar    1  UNL1        0.1299
     18 N          62.9670   80.7490   13.1505 N.ar    1  UNL1       -0.2256
     19 C          62.7204   88.7676   11.4625 C.1     1  UNL1        0.1035
     20 N          62.1499   89.4339   10.2457 N.1     1  UNL1       -0.1907
     21 O          63.8629   90.4274   13.6850 O.3     1  UNL1       -0.4528
     22 C          67.3623   92.7907   15.2403 C.ar    1  UNL1        0.0792
     23 C          66.0958   92.7117   16.0400 C.ar    1  UNL1        0.0143
     24 C          64.9293   91.9239   15.5216 C.ar    1  UNL1        0.0382
     25 C          65.0294   91.2151   14.2034 C.ar    1  UNL1        0.1462
     26 C          66.2959   91.2942   13.4037 C.ar    1  UNL1        0.0496
     27 C          67.4624   92.0820   13.9221 C.ar    1  UNL1        0.0703
     28 CL         68.7289   92.1610   13.1223 Cl      1  UNL1       -0.0814
     29 N          69.6952   94.3663   16.2771 N.1     1  UNL1       -0.1908
     30 C          68.5288   93.5785   15.7587 C.1     1  UNL1        0.1013
@<TRIPOS>BOND
     1    29    30    3
     2    30    22    1
     3    22    23   ar
     4    23    24   ar
     5    24    25   ar
     6    25    21    1
     7    21     1    1
     8     1     2   ar
     9     2     3   ar
    10     3     4   ar
    11     4     7    1
    12     7     8    2
    13     7     9    2
    14     7    10    1
    15    10    12    1
    16    12    13   ar
    17    13    14   ar
    18    14    15   ar
    19    15    16    1
    20    15    17   ar
    21    17    18   ar
    22     4     5   ar
    23     5     6   ar
    24     6    19    1
    25    19    20    3
    26    25    26   ar
    27    26    27   ar
    28    27    28    1
    29    27    22   ar
    30     6     1   ar
    31    18    12   ar
    32    10    11    1
@<TRIPOS>MOLECULE
*****
 30 32 0 0 0
SMALL
GASTEIGER

@<TRIPOS>ATOM
      1 C          62.3978   88.2526   11.6359 C.ar    1  UNL1        0.1549
      2 C          63.3620   88.3518   12.7807 C.ar    1  UNL1        0.0396
      3 C          64.1404   89.6154   12.9983 C.ar    1  UNL1        0.0234
      4 C          63.9546   90.7798   12.0712 C.ar    1  UNL1        0.1261
      5 C          62.9904   90.6806   10.9264 C.ar    1  UNL1        0.0335
      6 C          62.2120   89.4170   10.7087 C.ar    1  UNL1        0.1042
      7 S          64.7330   92.0435   12.2888 S.O2    1  UNL1        0.0747
      8 O          64.5820   92.3867   10.8365 O.2     1  UNL1       -0.1499
      9 O          64.8840   91.7002   13.7412 O.2     1  UNL1       -0.1499
     10 N          65.5114   93.3070   12.5065 N.pl3   1  UNL1       -0.1989
     11 H          65.6084   93.6752   13.4144 H       1  UNL1        0.1753
     12 C          66.1420   94.0097   11.3410 C.ar    1  UNL1        0.1472
     13 C          65.7188   95.4047   10.9878 C.ar    1  UNL1        0.0379
     14 C          66.3495   96.1074    9.8222 C.ar    1  UNL1        0.0342
     15 C          67.4033   95.4150    9.0098 C.ar    1  UNL1        0.1593
     16 F          68.0339   96.1177    7.8442 F       1  UNL1       -0.2025
     17 C          67.8265   94.0200    9.3630 C.ar    1  UNL1        0.1299
     18 N          67.1959   93.3173   10.5285 N.ar    1  UNL1       -0.2256
     19 C          61.2478   89.3178    9.5640 C.1     1  UNL1        0.1035
     20 N          60.2837   89.2187    8.4192 N.1     1  UNL1       -0.1907
     21 O          61.6194   86.9890   11.4183 O.3     1  UNL1       -0.4528
     22 C          63.1832   83.0808   13.0090 C.ar    1  UNL1        0.0792
     23 C          62.6703   84.1246   13.9562 C.ar    1  UNL1        0.0143
     24 C          62.1490   85.4274   13.4259 C.ar    1  UNL1        0.0382
     25 C          62.1407   85.6862   11.9485 C.ar    1  UNL1        0.1462
     26 C          62.6536   84.6424   11.0013 C.ar    1  UNL1        0.0496
     27 C          63.1749   83.3396   11.5316 C.ar    1  UNL1        0.0703
     28 CL         63.6878   82.2957   10.5843 Cl      1  UNL1       -0.0814
     29 N          64.2257   80.4753   14.0695 N.1     1  UNL1       -0.1908
     30 C          63.7045   81.7780   13.5393 C.1     1  UNL1        0.1013
@<TRIPOS>BOND
     1    29    30    3
     2    30    22    1
     3    22    23   ar
     4    23    24   ar
     5    24    25   ar
     6    25    21    1
     7    21     1    1
     8     1     2   ar
     9     2     3   ar
    10     3     4   ar
    11     4     7    1
    12     7     8    2
    13     7     9    2
    14     7    10    1
    15    10    12    1
    16    12    13   ar
    17    13    14   ar
    18    14    15   ar
    19    15    16    1
    20    15    17   ar
    21    17    18   ar
    22     4     5   ar
    23     5     6   ar
    24     6    19    1
    25    19    20    3
    26    25    26   ar
    27    26    27   ar
    28    27    28    1
    29    27    22   ar
    30     6     1   ar
    31    18    12   ar
    32    10    11    1
@<TRIPOS>MOLECULE
*****
 30 32 0 0 0
SMALL
GASTEIGER

@<TRIPOS>ATOM
      1 C          62.7742   89.4010   12.2549 C.ar    1  UNL1        0.1549
      2 C          62.9029   90.2451   11.0216 C.ar    1  UNL1        0.0396
      3 C          63.8445   91.4126   11.0067 C.ar    1  UNL1        0.0234
      4 C          64.6574   91.7361   12.2252 C.ar    1  UNL1        0.1261
      5 C          64.5287   90.8921   13.4585 C.ar    1  UNL1        0.0335
      6 C          63.5870   89.7245   13.4734 C.ar    1  UNL1        0.1042
      7 S          65.5990   92.9037   12.2103 S.O2    1  UNL1        0.0747
      8 O          65.6502   92.8434   10.7124 O.2     1  UNL1       -0.1499
      9 O          65.5479   92.9640   13.7081 O.2     1  UNL1       -0.1499
     10 N          66.5406   94.0712   12.1954 N.pl3   1  UNL1       -0.1989
     11 H          66.9535   94.3813   13.0336 H       1  UNL1        0.1753
     12 C          66.8531   94.7663   10.9035 C.ar    1  UNL1        0.1472
     13 C          66.3375   96.1526   10.6538 C.ar    1  UNL1        0.0379
     14 C          66.6500   96.8477    9.3618 C.ar    1  UNL1        0.0342
     15 C          67.4781   96.1566    8.3195 C.ar    1  UNL1        0.1593
     16 F          67.7906   96.8517    7.0276 F       1  UNL1       -0.2025
     17 C          67.9938   94.7703    8.5692 C.ar    1  UNL1        0.1299
     18 N          67.6813   94.0752    9.8611 N.ar    1  UNL1       -0.2256
     19 C          63.4583   88.8806   14.7067 C.1     1  UNL1        0.1035
     20 N          63.3296   88.0366   15.9400 N.1     1  UNL1       -0.1907
     21 O          61.8326   88.2335   12.2698 O.3     1  UNL1       -0.4528
     22 C          63.2755   84.1629   11.0056 C.ar    1  UNL1        0.0792
     23 C          62.5065   85.0184   10.0429 C.ar    1  UNL1        0.0143
     24 C          62.0255   86.3753   10.4643 C.ar    1  UNL1        0.0382
     25 C          62.3135   86.8767   11.8484 C.ar    1  UNL1        0.1462
     26 C          63.0825   86.0211   12.8111 C.ar    1  UNL1        0.0496
     27 C          63.5635   84.6643   12.3896 C.ar    1  UNL1        0.0703
     28 CL         64.3325   83.8087   13.3524 Cl      1  UNL1       -0.0814
     29 N          64.2374   81.4492   10.1628 N.1     1  UNL1       -0.1908
     30 C          63.7564   82.8061   10.5842 C.1     1  UNL1        0.1013
@<TRIPOS>BOND
     1    29    30    3
     2    30    22    1
     3    22    23   ar
     4    23    24   ar
     5    24    25   ar
     6    25    21    1
     7    21     1    1
     8     1     2   ar
     9     2     3   ar
    10     3     4   ar
    11     4     7    1
    12     7     8    2
    13     7     9    2
    14     7    10    1
    15    10    12    1
    16    12    13   ar
    17    13    14   ar
    18    14    15   ar
    19    15    16    1
    20    15    17   ar
    21    17    18   ar
    22     4     5   ar
    23     5     6   ar
    24     6    19    1
    25    19    20    3
    26    25    26   ar
    27    26    27   ar
    28    27    28    1
    29    27    22   ar
    30     6     1   ar
    31    18    12   ar
    32    10    11    1
@<TRIPOS>MOLECULE
*****
 30 32 0 0 0
SMALL
GASTEIGER

@<TRIPOS>ATOM
      1 C          62.8449   89.2012   12.3307 C.ar    1  UNL1        0.1549
      2 C          63.8146   89.4132   13.4554 C.ar    1  UNL1        0.0396
      3 C          64.7464   90.5884   13.4307 C.ar    1  UNL1        0.0234
      4 C          64.7086   91.5516   12.2814 C.ar    1  UNL1        0.1261
      5 C          63.7390   91.3396   11.1568 C.ar    1  UNL1        0.0335
      6 C          62.8071   90.1644   11.1814 C.ar    1  UNL1        0.1042
      7 S          65.6405   92.7268   12.2568 S.O2    1  UNL1        0.0747
      8 O          64.9534   93.2459   11.0287 O.2     1  UNL1       -0.1499
      9 O          66.3275   92.2077   13.4850 O.2     1  UNL1       -0.1499
     10 N          66.5724   93.9019   12.2322 N.pl3   1  UNL1       -0.1989
     11 H          67.0238   94.1895   13.0585 H       1  UNL1        0.1753
     12 C          66.8163   94.6390   10.9488 C.ar    1  UNL1        0.1472
     13 C          67.4270   93.9259    9.7789 C.ar    1  UNL1        0.0379
     14 C          67.6709   94.6630    8.4954 C.ar    1  UNL1        0.0342
     15 C          67.3043   96.1130    8.3819 C.ar    1  UNL1        0.1593
     16 F          67.5483   96.8500    7.0984 F       1  UNL1       -0.2025
     17 C          66.6937   96.8260    9.5518 C.ar    1  UNL1        0.1299
     18 N          66.4497   96.0890   10.8352 N.ar    1  UNL1       -0.2256
     19 C          61.8374   89.9524   10.0568 C.1     1  UNL1        0.1035
     20 N          60.8678   89.7405    8.9322 N.1     1  UNL1       -0.1907
     21 O          61.9130   88.0261   12.3553 O.3     1  UNL1       -0.4528
     22 C          63.3479   83.9876   10.9835 C.ar    1  UNL1        0.0792
     23 C          62.6933   84.9217   10.0093 C.ar    1  UNL1        0.0143
     24 C          62.2151   86.2678   10.4666 C.ar    1  UNL1        0.0382
     25 C          62.3913   86.6799   11.8981 C.ar    1  UNL1        0.1462
     26 C          63.0459   85.7458   12.8722 C.ar    1  UNL1        0.0496
     27 C          63.5241   84.3997   12.4149 C.ar    1  UNL1        0.0703
     28 CL         64.1787   83.4656   13.3892 Cl      1  UNL1       -0.0814
     29 N          64.3044   81.2953   10.0689 N.1     1  UNL1       -0.1908
     30 C          63.8262   82.6414   10.5262 C.1     1  UNL1        0.1013
@<TRIPOS>BOND
     1    29    30    3
     2    30    22    1
     3    22    23   ar
     4    23    24   ar
     5    24    25   ar
     6    25    21    1
     7    21     1    1
     8     1     2   ar
     9     2     3   ar
    10     3     4   ar
    11     4     7    1
    12     7     8    2
    13     7     9    2
    14     7    10    1
    15    10    12    1
    16    12    13   ar
    17    13    14   ar
    18    14    15   ar
    19    15    16    1
    20    15    17   ar
    21    17    18   ar
    22     4     5   ar
    23     5     6   ar
    24     6    19    1
    25    19    20    3
    26    25    26   ar
    27    26    27   ar
    28    27    28    1
    29    27    22   ar
    30     6     1   ar
    31    18    12   ar
    32    10    11    1
@<TRIPOS>MOLECULE
*****
 30 32 0 0 0
SMALL
GASTEIGER

@<TRIPOS>ATOM
      1 C          61.8083   88.8559   11.4185 C.ar    1  UNL1        0.1549
      2 C          61.6313   90.2193   10.8186 C.ar    1  UNL1        0.0396
      3 C          62.6279   91.3019   11.1095 C.ar    1  UNL1        0.0234
      4 C          63.8017   91.0211   12.0003 C.ar    1  UNL1        0.1261
      5 C          63.9787   89.6578   12.6002 C.ar    1  UNL1        0.0335
      6 C          62.9820   88.5751   12.3094 C.ar    1  UNL1        0.1042
      7 S          64.7983   92.1038   12.2911 S.O2    1  UNL1        0.0747
      8 O          65.1460   92.1753   10.8338 O.2     1  UNL1       -0.1499
      9 O          64.4507   92.0323   13.7485 O.2     1  UNL1       -0.1499
     10 N          65.7950   93.1864   12.5820 N.pl3   1  UNL1       -0.1989
     11 H          65.7677   94.0298   12.0748 H       1  UNL1        0.1753
     12 C          66.8331   92.9841   13.6457 C.ar    1  UNL1        0.1472
     13 C          66.6042   93.5186   15.0284 C.ar    1  UNL1        0.0379
     14 C          67.6423   93.3163   16.0920 C.ar    1  UNL1        0.0342
     15 C          68.9093   92.5795   15.7730 C.ar    1  UNL1        0.1593
     16 F          69.9474   92.3772   16.8367 F       1  UNL1       -0.2025
     17 C          69.1382   92.0450   14.3904 C.ar    1  UNL1        0.1299
     18 N          68.1001   92.2473   13.3267 N.ar    1  UNL1       -0.2256
     19 C          63.1591   87.2118   12.9093 C.1     1  UNL1        0.1035
     20 N          63.3362   85.8485   13.5092 N.1     1  UNL1       -0.1907
     21 O          60.8117   87.7733   11.1277 O.3     1  UNL1       -0.4528
     22 C          61.1422   85.3696    7.3378 C.ar    1  UNL1        0.0792
     23 C          59.9031   86.1686    7.6135 C.ar    1  UNL1        0.0143
     24 C          59.7929   86.9698    8.8768 C.ar    1  UNL1        0.0382
     25 C          60.9219   86.9721    9.8644 C.ar    1  UNL1        0.1462
     26 C          62.1610   86.1731    9.5887 C.ar    1  UNL1        0.0496
     27 C          62.2712   85.3719    8.3254 C.ar    1  UNL1        0.0703
     28 CL         63.5105   84.5729    8.0497 Cl      1  UNL1       -0.0814
     29 N          61.3626   83.7672    4.8112 N.1     1  UNL1       -0.1908
     30 C          61.2524   84.5684    6.0745 C.1     1  UNL1        0.1013
@<TRIPOS>BOND
     1    29    30    3
     2    30    22    1
     3    22    23   ar
     4    23    24   ar
     5    24    25   ar
     6    25    21    1
     7    21     1    1
     8     1     2   ar
     9     2     3   ar
    10     3     4   ar
    11     4     7    1
    12     7     8    2
    13     7     9    2
    14     7    10    1
    15    10    12    1
    16    12    13   ar
    17    13    14   ar
    18    14    15   ar
    19    15    16    1
    20    15    17   ar
    21    17    18   ar
    22     4     5   ar
    23     5     6   ar
    24     6    19    1
    25    19    20    3
    26    25    26   ar
    27    26    27   ar
    28    27    28    1
    29    27    22   ar
    30     6     1   ar
    31    18    12   ar
    32    10    11    1
@<TRIPOS>MOLECULE
*****
 30 32 0 0 0
SMALL
GASTEIGER

@<TRIPOS>ATOM
      1 C          62.2667   87.8738   11.5369 C.ar    1  UNL1        0.1549
      2 C          63.2334   87.9586   12.6808 C.ar    1  UNL1        0.0396
      3 C          63.9784   89.2343   12.9402 C.ar    1  UNL1        0.0234
      4 C          63.7570   90.4253   12.0557 C.ar    1  UNL1        0.1261
      5 C          62.7904   90.3407   10.9118 C.ar    1  UNL1        0.0335
      6 C          62.0452   89.0649   10.6524 C.ar    1  UNL1        0.1042
      7 S          64.5021   91.7011   12.3152 S.O2    1  UNL1        0.0747
      8 O          64.8799   91.7753   10.8654 O.2     1  UNL1       -0.1499
      9 O          64.1243   91.6269   13.7649 O.2     1  UNL1       -0.1499
     10 N          65.2472   92.9768   12.5746 N.pl3   1  UNL1       -0.1989
     11 H          64.9757   93.8067   12.1198 H       1  UNL1        0.1753
     12 C          66.4060   92.9882   13.5270 C.ar    1  UNL1        0.1472
     13 C          67.5644   92.0603   13.3099 C.ar    1  UNL1        0.0379
     14 C          68.7232   92.0716   14.2622 C.ar    1  UNL1        0.0342
     15 C          68.7236   93.0108   15.4318 C.ar    1  UNL1        0.1593
     16 F          69.8824   93.0222   16.3842 F       1  UNL1       -0.2025
     17 C          67.5652   93.9387   15.6489 C.ar    1  UNL1        0.1299
     18 N          66.4064   93.9273   14.6965 N.ar    1  UNL1       -0.2256
     19 C          61.0787   88.9802    9.5085 C.1     1  UNL1        0.1035
     20 N          60.1121   88.8955    8.3646 N.1     1  UNL1       -0.1907
     21 O          61.5216   86.5981   11.2775 O.3     1  UNL1       -0.4528
     22 C          63.0093   82.7281   13.0267 C.ar    1  UNL1        0.0792
     23 C          62.9706   82.9127   11.5387 C.ar    1  UNL1        0.0143
     24 C          62.4747   84.2027   10.9556 C.ar    1  UNL1        0.0382
     25 C          62.0175   85.3081   11.8606 C.ar    1  UNL1        0.1462
     26 C          62.0562   85.1234   13.3486 C.ar    1  UNL1        0.0496
     27 C          62.5520   83.8334   13.9317 C.ar    1  UNL1        0.0703
     28 CL         62.5907   83.6488   15.4199 Cl      1  UNL1       -0.0814
     29 N          64.0010   80.1480   14.1928 N.1     1  UNL1       -0.1908
     30 C          63.5051   81.4380   13.6098 C.1     1  UNL1        0.1013
@<TRIPOS>BOND
     1    29    30    3
     2    30    22    1
     3    22    23   ar
     4    23    24   ar
     5    24    25   ar
     6    25    21    1
     7    21     1    1
     8     1     2   ar
     9     2     3   ar
    10     3     4   ar
    11     4     7    1
    12     7     8    2
    13     7     9    2
    14     7    10    1
    15    10    12    1
    16    12    13   ar
    17    13    14   ar
    18    14    15   ar
    19    15    16    1
    20    15    17   ar
    21    17    18   ar
    22     4     5   ar
    23     5     6   ar
    24     6    19    1
    25    19    20    3
    26    25    26   ar
    27    26    27   ar
    28    27    28    1
    29    27    22   ar
    30     6     1   ar
    31    18    12   ar
    32    10    11    1
@<TRIPOS>MOLECULE
*****
 30 32 0 0 0
SMALL
GASTEIGER

@<TRIPOS>ATOM
      1 C          63.6305   86.2711   15.4790 C.ar    1  UNL1        0.1549
      2 C          64.0553   86.5312   14.0641 C.ar    1  UNL1        0.0396
      3 C          64.2112   87.9405   13.5749 C.ar    1  UNL1        0.0234
      4 C          63.9422   89.0898   14.5006 C.ar    1  UNL1        0.1261
      5 C          63.5174   88.8298   15.9154 C.ar    1  UNL1        0.0335
      6 C          63.3615   87.4203   16.4047 C.ar    1  UNL1        0.1042
      7 S          64.0981   90.4993   14.0113 S.O2    1  UNL1        0.0747
      8 O          64.4113   90.9493   15.4074 O.2     1  UNL1       -0.1499
      9 O          63.7850   90.0492   12.6151 O.2     1  UNL1       -0.1499
     10 N          64.2540   91.9086   13.5220 N.pl3   1  UNL1       -0.1989
     11 H          63.6583   92.6158   13.8601 H       1  UNL1        0.1753
     12 C          65.3173   92.2405   12.5174 C.ar    1  UNL1        0.1472
     13 C          66.7597   91.9848   12.8399 C.ar    1  UNL1        0.0379
     14 C          67.8231   92.3167   11.8354 C.ar    1  UNL1        0.0342
     15 C          67.4441   92.9043   10.5084 C.ar    1  UNL1        0.1593
     16 F          68.5074   93.2361    9.5038 F       1  UNL1       -0.2025
     17 C          66.0017   93.1599   10.1858 C.ar    1  UNL1        0.1299
     18 N          64.9383   92.8280   11.1904 N.ar    1  UNL1       -0.2256
     19 C          62.9367   87.1603   17.8195 C.1     1  UNL1        0.1035
     20 N          62.5119   86.9002   19.2344 N.1     1  UNL1       -0.1907
     21 O          63.4746   84.8617   15.9682 O.3     1  UNL1       -0.4528
     22 C          63.0110   81.4946   13.0191 C.ar    1  UNL1        0.0792
     23 C          64.2286   82.3693   12.9733 C.ar    1  UNL1        0.0143
     24 C          64.3832   83.4917   13.9564 C.ar    1  UNL1        0.0382
     25 C          63.3201   83.7393   14.9852 C.ar    1  UNL1        0.1462
     26 C          62.1024   82.8646   15.0309 C.ar    1  UNL1        0.0496
     27 C          61.9479   81.7422   14.0479 C.ar    1  UNL1        0.0703
     28 CL         60.7302   80.8674   14.0937 Cl      1  UNL1       -0.0814
     29 N          62.7019   79.2498   11.0530 N.1     1  UNL1       -0.1908
     30 C          62.8564   80.3722   12.0360 C.1     1  UNL1        0.1013
@<TRIPOS>BOND
     1    29    30    3
     2    30    22    1
     3    22    23   ar
     4    23    24   ar
     5    24    25   ar
     6    25    21    1
     7    21     1    1
     8     1     2   ar
     9     2     3   ar
    10     3     4   ar
    11     4     7    1
    12     7     8    2
    13     7     9    2
    14     7    10    1
    15    10    12    1
    16    12    13   ar
    17    13    14   ar
    18    14    15   ar
    19    15    16    1
    20    15    17   ar
    21    17    18   ar
    22     4     5   ar
    23     5     6   ar
    24     6    19    1
    25    19    20    3
    26    25    26   ar
    27    26    27   ar
    28    27    28    1
    29    27    22   ar
    30     6     1   ar
    31    18    12   ar
    32    10    11    1
@<TRIPOS>MOLECULE
*****
 30 32 0 0 0
SMALL
GASTEIGER

@<TRIPOS>ATOM
      1 C          59.2113   90.4462    5.7274 C.ar    1  UNL1        0.1549
      2 C          60.7016   90.4630    5.5571 C.ar    1  UNL1        0.0396
      3 C          61.3266   91.3323    4.5065 C.ar    1  UNL1        0.0234
      4 C          60.4615   92.1847    3.6262 C.ar    1  UNL1        0.1261
      5 C          58.9713   92.1679    3.7965 C.ar    1  UNL1        0.0335
      6 C          58.3462   91.2986    4.8471 C.ar    1  UNL1        0.1042
      7 S          61.0866   93.0539    2.5756 S.O2    1  UNL1        0.0747
      8 O          59.9720   94.0454    2.7327 O.2     1  UNL1       -0.1499
      9 O          62.2012   92.0625    2.4186 O.2     1  UNL1       -0.1499
     10 N          61.7117   93.9231    1.5251 N.pl3   1  UNL1       -0.1989
     11 H          62.4614   94.5166    1.7594 H       1  UNL1        0.1753
     12 C          61.1945   93.8881    0.1175 C.ar    1  UNL1        0.1472
     13 C          60.1759   92.8620   -0.2820 C.ar    1  UNL1        0.0379
     14 C          59.6588   92.8269   -1.6895 C.ar    1  UNL1        0.0342
     15 C          60.1602   93.8179   -2.6977 C.ar    1  UNL1        0.1593
     16 F          59.6430   93.7829   -4.1053 F       1  UNL1       -0.2025
     17 C          61.1788   94.8440   -2.2983 C.ar    1  UNL1        0.1299
     18 N          61.6960   94.8791   -0.8907 N.ar    1  UNL1       -0.2256
     19 C          56.8560   91.2818    5.0174 C.1     1  UNL1        0.1035
     20 N          55.3658   91.2650    5.1877 N.1     1  UNL1       -0.1907
     21 O          58.5863   89.5770    6.7780 O.3     1  UNL1       -0.4528
     22 C          61.1382   86.7352    9.1576 C.ar    1  UNL1        0.0792
     23 C          60.2453   86.2119    8.0719 C.ar    1  UNL1        0.0143
     24 C          59.3946   87.1592    7.2787 C.ar    1  UNL1        0.0382
     25 C          59.4370   88.6297    7.5712 C.ar    1  UNL1        0.1462
     26 C          60.3299   89.1530    8.6569 C.ar    1  UNL1        0.0496
     27 C          61.1805   88.2058    9.4500 C.ar    1  UNL1        0.0703
     28 CL         62.0735   88.7292   10.5358 Cl      1  UNL1       -0.0814
     29 N          62.8395   84.8407   10.7439 N.1     1  UNL1       -0.1908
     30 C          61.9889   85.7880    9.9507 C.1     1  UNL1        0.1013
@<TRIPOS>BOND
     1    29    30    3
     2    30    22    1
     3    22    23   ar
     4    23    24   ar
     5    24    25   ar
     6    25    21    1
     7    21     1    1
     8     1     2   ar
     9     2     3   ar
    10     3     4   ar
    11     4     7    1
    12     7     8    2
    13     7     9    2
    14     7    10    1
    15    10    12    1
    16    12    13   ar
    17    13    14   ar
    18    14    15   ar
    19    15    16    1
    20    15    17   ar
    21    17    18   ar
    22     4     5   ar
    23     5     6   ar
    24     6    19    1
    25    19    20    3
    26    25    26   ar
    27    26    27   ar
    28    27    28    1
    29    27    22   ar
    30     6     1   ar
    31    18    12   ar
    32    10    11    1
