@<TRIPOS>MOLECULE
*****
 38 41 0 0 0
SMALL
GASTEIGER

@<TRIPOS>ATOM
      1 C          62.3050   84.8718   11.0807 C.ar    1  UNL1       -0.0206
      2 C          61.2451   85.9143   11.2799 C.ar    1  UNL1       -0.0042
      3 C          60.8461   86.8053   10.1411 C.ar    1  UNL1       -0.0003
      4 C          61.5070   86.6539    8.8030 C.ar    1  UNL1        0.0001
      5 C          62.5669   85.6113    8.6038 C.ar    1  UNL1       -0.0003
      6 C          62.9659   84.7203    9.7426 C.ar    1  UNL1       -0.0042
      7 C          62.9612   80.6143   14.1343 C.3     1  UNL1        0.0897
      8 N          63.0057   82.0238   13.6231 N.3     1  UNL1       -0.2708
      9 C          63.6307   83.1955   14.3207 C.3     1  UNL1        0.0816
     10 C          63.4442   84.4049   13.4532 C.3     1  UNL1        0.0981
     11 C          62.7040   83.9808   12.2194 C.3     1  UNL1        0.0483
     12 C          62.4330   82.5092   12.3244 C.3     1  UNL1        0.0770
     13 C          63.9153   85.7945   13.7649 C.2     1  UNL1        0.2274
     14 O          64.9650   86.0130   14.8139 O.2     1  UNL1       -0.2747
     15 N          63.3367   86.9656   13.0275 N.am    1  UNL1       -0.2839
     16 H          62.6478   86.8222   12.3390 H       1  UNL1        0.1549
     17 C          63.8078   88.3553   13.3392 C.ar    1  UNL1        0.0504
     18 C          64.5192   88.6342   14.6299 C.ar    1  UNL1        0.0155
     19 C          64.9902   90.0238   14.9415 C.ar    1  UNL1        0.0127
     20 C          64.7499   91.1344   13.9623 C.ar    1  UNL1        0.0578
     21 CL         65.2209   92.5241   14.2740 Cl      1  UNL1       -0.0822
     22 C          64.0385   90.8555   12.6716 C.ar    1  UNL1        0.0127
     23 C          63.5674   89.4659   12.3600 C.ar    1  UNL1        0.0155
     24 C          61.1080   87.5449    7.6643 C.2     1  UNL1        0.0047
     25 C          60.0768   88.6138    7.8742 C.2     1  UNL1        0.0580
     26 C          59.6777   89.5049    6.7355 C.2     1  UNL1        0.2497
     27 O          58.2350   89.6159    6.3401 O.2     1  UNL1       -0.2698
     28 N          60.7212   90.2851    5.9922 N.am    1  UNL1       -0.2794
     29 H          61.6681   90.2123    6.2517 H       1  UNL1        0.1552
     30 C          60.3220   91.1761    4.8535 C.ar    1  UNL1        0.0636
     31 C          58.9122   91.6784    4.7527 C.ar    1  UNL1        0.0159
     32 C          58.5131   92.5694    3.6140 C.ar    1  UNL1        0.0014
     33 C          59.5238   92.9583    2.5761 C.ar    1  UNL1        0.0013
     34 C          60.9336   92.4560    2.6769 C.ar    1  UNL1        0.0153
     35 C          61.3327   91.5650    3.8156 C.ar    1  UNL1        0.0552
     36 N          62.7425   91.0627    3.9164 N.pl3   1  UNL1       -0.3560
     37 H          63.4059   91.3179    3.2351 H       1  UNL1        0.1424
     38 H          63.0045   90.4779    4.6637 H       1  UNL1        0.1424
@<TRIPOS>BOND
     1     7     8    1
     2     8     9    1
     3     9    10    1
     4    10    13    1
     5    13    14    2
     6    13    15   am
     7    15    17    1
     8    17    18   ar
     9    18    19   ar
    10    19    20   ar
    11    20    21    1
    12    20    22   ar
    13    22    23   ar
    14    10    11    1
    15    11     1    1
    16     1     2   ar
    17     2     3   ar
    18     3     4   ar
    19     4    24    1
    20    24    25    2
    21    25    26    1
    22    26    27    2
    23    26    28   am
    24    28    30    1
    25    30    31   ar
    26    31    32   ar
    27    32    33   ar
    28    33    34   ar
    29    34    35   ar
    30    35    36    1
    31     4     5   ar
    32     5     6   ar
    33    11    12    1
    34    12     8    1
    35    23    17   ar
    36     6     1   ar
    37    35    30   ar
    38    15    16    1
    39    28    29    1
    40    36    37    1
    41    36    38    1
@<TRIPOS>MOLECULE
*****
 38 41 0 0 0
SMALL
GASTEIGER

@<TRIPOS>ATOM
      1 C          61.0034   88.0089    9.4806 C.ar    1  UNL1       -0.0206
      2 C          60.7291   89.4822    9.5432 C.ar    1  UNL1       -0.0042
      3 C          60.1166   90.1818    8.3661 C.ar    1  UNL1       -0.0003
      4 C          59.7783   89.4080    7.1264 C.ar    1  UNL1        0.0001
      5 C          60.0526   87.9346    7.0638 C.ar    1  UNL1       -0.0003
      6 C          60.6651   87.2351    8.2408 C.ar    1  UNL1       -0.0042
      7 C          62.1125   84.3647   13.1372 C.3     1  UNL1        0.0897
      8 N          62.1257   85.6342   12.3384 N.3     1  UNL1       -0.2708
      9 C          62.9914   86.8313   12.5993 C.3     1  UNL1        0.0816
     10 C          62.6762   87.8664   11.5605 C.3     1  UNL1        0.0981
     11 C          61.6159   87.3093   10.6575 C.3     1  UNL1        0.0483
     12 C          61.2757   85.9297   11.1383 C.3     1  UNL1        0.0770
     13 C          63.3102   89.2210   11.4449 C.2     1  UNL1        0.2274
     14 O          63.2435   89.9721   10.1483 O.2     1  UNL1       -0.2747
     15 N          64.0108   89.8244   12.6261 N.am    1  UNL1       -0.2839
     16 H          64.0545   89.3314   13.4771 H       1  UNL1        0.1549
     17 C          64.6447   91.1790   12.5105 C.ar    1  UNL1        0.0504
     18 C          65.3632   91.7734   13.6854 C.ar    1  UNL1        0.0155
     19 C          65.9971   93.1280   13.5698 C.ar    1  UNL1        0.0127
     20 C          65.9125   93.8880   12.2794 C.ar    1  UNL1        0.0578
     21 CL         66.5465   95.2426   12.1638 Cl      1  UNL1       -0.0822
     22 C          65.1941   93.2935   11.1045 C.ar    1  UNL1        0.0127
     23 C          64.5602   91.9390   11.2201 C.ar    1  UNL1        0.0155
     24 C          59.1658   90.1076    5.9494 C.2     1  UNL1        0.0047
     25 C          59.9382   91.1679    5.2220 C.2     1  UNL1        0.0580
     26 C          59.3258   91.8676    4.0450 C.2     1  UNL1        0.2497
     27 O          57.8366   92.0241    3.9572 O.2     1  UNL1       -0.2698
     28 N          60.2025   92.4107    2.9558 N.am    1  UNL1       -0.2794
     29 H          61.1799   92.3080    3.0134 H       1  UNL1        0.1552
     30 C          59.5900   93.1104    1.7788 C.ar    1  UNL1        0.0636
     31 C          58.8269   92.3254    0.7534 C.ar    1  UNL1        0.0159
     32 C          58.2145   93.0251   -0.4236 C.ar    1  UNL1        0.0014
     33 C          58.3650   94.5098   -0.5751 C.ar    1  UNL1        0.0013
     34 C          59.1281   95.2948    0.4503 C.ar    1  UNL1        0.0153
     35 C          59.7406   94.5951    1.6273 C.ar    1  UNL1        0.0552
     36 N          60.5036   95.3801    2.6527 N.pl3   1  UNL1       -0.3560
     37 H          60.6025   96.3545    2.5533 H       1  UNL1        0.1424
     38 H          60.9056   94.9208    3.4252 H       1  UNL1        0.1424
@<TRIPOS>BOND
     1     7     8    1
     2     8     9    1
     3     9    10    1
     4    10    13    1
     5    13    14    2
     6    13    15   am
     7    15    17    1
     8    17    18   ar
     9    18    19   ar
    10    19    20   ar
    11    20    21    1
    12    20    22   ar
    13    22    23   ar
    14    10    11    1
    15    11     1    1
    16     1     2   ar
    17     2     3   ar
    18     3     4   ar
    19     4    24    1
    20    24    25    2
    21    25    26    1
    22    26    27    2
    23    26    28   am
    24    28    30    1
    25    30    31   ar
    26    31    32   ar
    27    32    33   ar
    28    33    34   ar
    29    34    35   ar
    30    35    36    1
    31     4     5   ar
    32     5     6   ar
    33    11    12    1
    34    12     8    1
    35    23    17   ar
    36     6     1   ar
    37    35    30   ar
    38    15    16    1
    39    28    29    1
    40    36    37    1
    41    36    38    1
@<TRIPOS>MOLECULE
*****
 38 41 0 0 0
SMALL
GASTEIGER

@<TRIPOS>ATOM
      1 C          60.9076   89.8531    9.4311 C.ar    1  UNL1       -0.0206
      2 C          62.2586   90.4248    9.1180 C.ar    1  UNL1       -0.0042
      3 C          63.1804   90.8241   10.2318 C.ar    1  UNL1       -0.0003
      4 C          62.7514   90.6517   11.6589 C.ar    1  UNL1        0.0001
      5 C          61.4004   90.0800   11.9719 C.ar    1  UNL1       -0.0003
      6 C          60.4786   89.6807   10.8581 C.ar    1  UNL1       -0.0042
      7 C          57.3683   90.0728    5.5188 C.3     1  UNL1        0.0897
      8 N          58.3588   89.5547    6.5190 N.3     1  UNL1       -0.2708
      9 C          58.7751   88.1235    6.6877 C.3     1  UNL1        0.0816
     10 C          59.7806   88.0612    7.7991 C.3     1  UNL1        0.0981
     11 C          59.9857   89.4537    8.3173 C.3     1  UNL1        0.0483
     12 C          59.1070   90.3768    7.5262 C.3     1  UNL1        0.0770
     13 C          60.4614   86.8234    8.3036 C.2     1  UNL1        0.2274
     14 O          60.0525   85.4774    7.7830 O.2     1  UNL1       -0.2747
     15 N          61.5510   86.9317    9.3288 N.am    1  UNL1       -0.2839
     16 H          61.8194   87.8151    9.6705 H       1  UNL1        0.1549
     17 C          62.2318   85.6939    9.8333 C.ar    1  UNL1        0.0504
     18 C          61.9809   85.2177   11.2334 C.ar    1  UNL1        0.0155
     19 C          62.6617   83.9800   11.7379 C.ar    1  UNL1        0.0127
     20 C          63.5935   83.2185   10.8423 C.ar    1  UNL1        0.0578
     21 CL         64.2743   81.9808   11.3468 Cl      1  UNL1       -0.0822
     22 C          63.8444   83.6948    9.4422 C.ar    1  UNL1        0.0127
     23 C          63.1636   84.9325    8.9378 C.ar    1  UNL1        0.0155
     24 C          63.6733   91.0511   12.7726 C.2     1  UNL1        0.0047
     25 C          64.8901   91.8777   12.4790 C.2     1  UNL1        0.0580
     26 C          65.8121   92.2771   13.5928 C.2     1  UNL1        0.2497
     27 O          65.3277   92.2536   15.0122 O.2     1  UNL1       -0.2698
     28 N          67.2184   92.7000   13.2871 N.am    1  UNL1       -0.2794
     29 H          67.5363   92.7155   12.3555 H       1  UNL1        0.1552
     30 C          68.1403   93.0994   14.4009 C.ar    1  UNL1        0.0636
     31 C          67.6544   94.0155   15.4847 C.ar    1  UNL1        0.0159
     32 C          68.5764   94.4148   16.5985 C.ar    1  UNL1        0.0014
     33 C          69.9843   93.8980   16.6284 C.ar    1  UNL1        0.0013
     34 C          70.4702   92.9820   15.5446 C.ar    1  UNL1        0.0153
     35 C          69.5482   92.5826   14.4308 C.ar    1  UNL1        0.0552
     36 N          70.0340   91.6666   13.3470 N.pl3   1  UNL1       -0.3560
     37 H          70.9581   91.3274   13.3666 H       1  UNL1        0.1424
     38 H          69.4289   91.4045   12.6160 H       1  UNL1        0.1424
@<TRIPOS>BOND
     1     7     8    1
     2     8     9    1
     3     9    10    1
     4    10    13    1
     5    13    14    2
     6    13    15   am
     7    15    17    1
     8    17    18   ar
     9    18    19   ar
    10    19    20   ar
    11    20    21    1
    12    20    22   ar
    13    22    23   ar
    14    10    11    1
    15    11     1    1
    16     1     2   ar
    17     2     3   ar
    18     3     4   ar
    19     4    24    1
    20    24    25    2
    21    25    26    1
    22    26    27    2
    23    26    28   am
    24    28    30    1
    25    30    31   ar
    26    31    32   ar
    27    32    33   ar
    28    33    34   ar
    29    34    35   ar
    30    35    36    1
    31     4     5   ar
    32     5     6   ar
    33    11    12    1
    34    12     8    1
    35    23    17   ar
    36     6     1   ar
    37    35    30   ar
    38    15    16    1
    39    28    29    1
    40    36    37    1
    41    36    38    1
@<TRIPOS>MOLECULE
*****
 38 41 0 0 0
SMALL
GASTEIGER

@<TRIPOS>ATOM
      1 C          64.1566   89.8578   14.5805 C.ar    1  UNL1       -0.0206
      2 C          64.4984   88.5066   15.1350 C.ar    1  UNL1       -0.0042
      3 C          64.1799   87.2703   14.3477 C.ar    1  UNL1       -0.0003
      4 C          63.5195   87.3850   13.0057 C.ar    1  UNL1        0.0001
      5 C          63.1777   88.7361   12.4511 C.ar    1  UNL1       -0.0003
      6 C          63.4963   89.9725   13.2385 C.ar    1  UNL1       -0.0042
      7 C          64.2006   93.5121   18.3916 C.3     1  UNL1        0.0897
      8 N          64.4954   92.7739   17.1196 N.3     1  UNL1       -0.2708
      9 C          65.4354   93.2198   16.0389 C.3     1  UNL1        0.0816
     10 C          65.4228   92.1816   14.9563 C.3     1  UNL1        0.0981
     11 C          64.4751   91.0941   15.3678 C.3     1  UNL1        0.0483
     12 C          63.9020   91.4602   16.7047 C.3     1  UNL1        0.0770
     13 C          66.2183   92.2236   13.6852 C.2     1  UNL1        0.2274
     14 O          67.4785   91.4193   13.5623 O.2     1  UNL1       -0.2747
     15 N          65.7537   93.0699   12.5373 N.am    1  UNL1       -0.2839
     16 H          64.9266   93.5978   12.6180 H       1  UNL1        0.1549
     17 C          66.5492   93.1119   11.2662 C.ar    1  UNL1        0.0504
     18 C          66.3585   94.2425   10.2991 C.ar    1  UNL1        0.0155
     19 C          67.1540   94.2844    9.0281 C.ar    1  UNL1        0.0127
     20 C          68.1403   93.1959    8.7243 C.ar    1  UNL1        0.0578
     21 CL         68.9358   93.2379    7.4533 Cl      1  UNL1       -0.0822
     22 C          68.3310   92.0653    9.6915 C.ar    1  UNL1        0.0127
     23 C          67.5355   92.0234   10.9625 C.ar    1  UNL1        0.0155
     24 C          63.2010   86.1486   12.2184 C.2     1  UNL1        0.0047
     25 C          63.4160   84.7951   12.8282 C.2     1  UNL1        0.0580
     26 C          63.0975   83.5587   12.0410 C.2     1  UNL1        0.2497
     27 O          62.3804   83.6694   10.7282 O.2     1  UNL1       -0.2698
     28 N          63.4961   82.2114   12.5665 N.am    1  UNL1       -0.2794
     29 H          63.9668   82.1387   13.4282 H       1  UNL1        0.1552
     30 C          63.1776   80.9750   11.7793 C.ar    1  UNL1        0.0636
     31 C          63.4081   80.9494   10.2973 C.ar    1  UNL1        0.0159
     32 C          63.0895   79.7129    9.5101 C.ar    1  UNL1        0.0014
     33 C          62.5405   78.5022   10.2049 C.ar    1  UNL1        0.0013
     34 C          62.3101   78.5278   11.6868 C.ar    1  UNL1        0.0153
     35 C          62.6286   79.7643   12.4740 C.ar    1  UNL1        0.0552
     36 N          62.3982   79.7900   13.9560 N.pl3   1  UNL1       -0.3560
     37 H          62.0379   78.9953   14.4120 H       1  UNL1        0.1424
     38 H          62.6073   80.6015   14.4727 H       1  UNL1        0.1424
@<TRIPOS>BOND
     1     7     8    1
     2     8     9    1
     3     9    10    1
     4    10    13    1
     5    13    14    2
     6    13    15   am
     7    15    17    1
     8    17    18   ar
     9    18    19   ar
    10    19    20   ar
    11    20    21    1
    12    20    22   ar
    13    22    23   ar
    14    10    11    1
    15    11     1    1
    16     1     2   ar
    17     2     3   ar
    18     3     4   ar
    19     4    24    1
    20    24    25    2
    21    25    26    1
    22    26    27    2
    23    26    28   am
    24    28    30    1
    25    30    31   ar
    26    31    32   ar
    27    32    33   ar
    28    33    34   ar
    29    34    35   ar
    30    35    36    1
    31     4     5   ar
    32     5     6   ar
    33    11    12    1
    34    12     8    1
    35    23    17   ar
    36     6     1   ar
    37    35    30   ar
    38    15    16    1
    39    28    29    1
    40    36    37    1
    41    36    38    1
