@<TRIPOS>MOLECULE
*****
 30 34 0 0 0
SMALL
GASTEIGER

@<TRIPOS>ATOM
      1 O          60.7004   90.4658    9.0134 O.2     1  UNL1       -0.2526
      2 C          60.5555   89.0117    8.6751 C.2     1  UNL1        0.3039
      3 N          59.8257   88.6002    7.4308 N.am    1  UNL1       -0.2901
      4 N          61.1403   87.9689    9.5810 N.am    1  UNL1       -0.2640
      5 C          61.8701   88.3804   10.8253 C.3     1  UNL1        0.0985
      6 C          62.4549   87.3377   11.7312 C.3     1  UNL1        0.0617
      7 C          62.3100   85.8835   11.3928 C.3     1  UNL1        0.1392
      8 C          61.5803   85.4721   10.1486 C.3     1  UNL1        0.0617
      9 C          60.9954   86.5148    9.2427 C.3     1  UNL1        0.0985
     10 C          63.0398   86.2949   12.6372 C.3     1  UNL1        0.0756
     11 C          63.6246   85.2522   13.5430 C.3     1  UNL1        0.1566
     12 O          64.3544   85.6637   14.7874 O.3     1  UNL1       -0.3783
     13 C          63.4797   83.7981   13.2047 C.ar    1  UNL1        0.1195
     14 N          64.0646   82.7554   14.1107 N.ar    1  UNL1       -0.2427
     15 C          63.9197   81.3012   13.7724 C.ar    1  UNL1        0.0988
     16 C          63.1899   80.8898   12.5280 C.ar    1  UNL1        0.0238
     17 C          62.6051   81.9325   11.6221 C.ar    1  UNL1        0.0398
     18 C          62.7500   83.3867   11.9605 C.ar    1  UNL1        0.1540
     19 O          62.1651   84.4294   11.0545 O.3     1  UNL1       -0.4811
     20 H          59.7306   87.6458    7.2088 H       1  UNL1        0.1509
     21 H          64.6665   84.8734   15.2553 H       1  UNL1        0.2109
     22 C          59.2408   89.6429    6.5249 C.3     1  UNL1        0.0774
     23 C          58.0599   90.4362    6.0495 C.3     1  UNL1        0.0259
     24 C          59.4088   90.6556    5.4311 C.3     1  UNL1        0.0420
     25 C          60.2845   91.3669    4.4426 C.ar    1  UNL1       -0.0208
     26 C          59.7293   92.4947    3.6242 C.ar    1  UNL1       -0.0042
     27 C          60.6050   93.2060    2.6357 C.ar    1  UNL1       -0.0003
     28 C          62.0360   92.7895    2.4656 C.ar    1  UNL1       -0.0000
     29 C          62.5912   91.6617    3.2840 C.ar    1  UNL1       -0.0003
     30 C          61.7154   90.9504    4.2726 C.ar    1  UNL1       -0.0042
@<TRIPOS>BOND
     1     1     2    2
     2     2     3   am
     3    22     3    1
     4    22    23    1
     5    23    24    1
     6    24    25    1
     7    25    26   ar
     8    26    27   ar
     9    27    28   ar
    10    28    29   ar
    11    29    30   ar
    12     2     4   am
    13     4     5    1
    14     5     6    1
    15     6     7    1
    16     7     8    1
    17     8     9    1
    18     7    10    1
    19    10    11    1
    20    11    12    1
    21    11    13    1
    22    13    14   ar
    23    14    15   ar
    24    15    16   ar
    25    16    17   ar
    26    17    18   ar
    27    18    19    1
    28    24    22    1
    29    30    25   ar
    30     9     4    1
    31    18    13   ar
    32    19     7    1
    33     3    20    1
    34    12    21    1
@<TRIPOS>MOLECULE
*****
 30 34 0 0 0
SMALL
GASTEIGER

@<TRIPOS>ATOM
      1 O          63.7278   87.6231   16.1250 O.2     1  UNL1       -0.2526
      2 C          63.7772   87.2813   14.6653 C.2     1  UNL1        0.3039
      3 N          64.0285   88.3574   13.6511 N.am    1  UNL1       -0.2901
      4 N          63.5752   85.8632   14.2199 N.am    1  UNL1       -0.2640
      5 C          63.3239   84.7871   15.2341 C.3     1  UNL1        0.0985
      6 C          63.1220   83.3691   14.7887 C.3     1  UNL1        0.0617
      7 C          63.1714   83.0272   13.3290 C.3     1  UNL1        0.1392
      8 C          63.4227   84.1034   12.3147 C.3     1  UNL1        0.0617
      9 C          63.6247   85.5213   12.7602 C.3     1  UNL1        0.0985
     10 C          62.9200   81.9510   14.3432 C.3     1  UNL1        0.0756
     11 C          62.7181   80.5330   13.8978 C.3     1  UNL1        0.1566
     12 O          62.4668   79.4568   14.9120 O.3     1  UNL1       -0.3783
     13 C          62.7675   80.1911   12.4381 C.ar    1  UNL1        0.1195
     14 N          62.5656   78.7731   11.9926 N.ar    1  UNL1       -0.2427
     15 C          62.6150   78.4312   10.5329 C.ar    1  UNL1        0.0988
     16 C          62.8664   79.5074    9.5187 C.ar    1  UNL1        0.0238
     17 C          63.0683   80.9254    9.9641 C.ar    1  UNL1        0.0398
     18 C          63.0189   81.2673   11.4238 C.ar    1  UNL1        0.1540
     19 O          63.2208   82.6854   11.8693 O.3     1  UNL1       -0.4811
     20 H          64.0610   88.1330   12.6931 H       1  UNL1        0.1509
     21 H          62.3589   78.6053   14.4600 H       1  UNL1        0.2109
     22 C          64.2305   89.7755   14.0966 C.3     1  UNL1        0.0774
     23 C          64.1653   90.8219   15.1693 C.3     1  UNL1        0.0259
     24 C          64.6454   91.1852   13.7954 C.3     1  UNL1        0.0420
     25 C          65.1621   92.2087   12.8283 C.ar    1  UNL1       -0.0208
     26 C          65.9939   93.3549   13.3226 C.ar    1  UNL1       -0.0042
     27 C          66.5106   94.3785   12.3555 C.ar    1  UNL1       -0.0003
     28 C          66.1955   94.2558   10.8940 C.ar    1  UNL1       -0.0000
     29 C          65.3637   93.1096   10.3998 C.ar    1  UNL1       -0.0003
     30 C          64.8470   92.0860   11.3669 C.ar    1  UNL1       -0.0042
@<TRIPOS>BOND
     1     1     2    2
     2     2     3   am
     3    22     3    1
     4    22    23    1
     5    23    24    1
     6    24    25    1
     7    25    26   ar
     8    26    27   ar
     9    27    28   ar
    10    28    29   ar
    11    29    30   ar
    12     2     4   am
    13     4     5    1
    14     5     6    1
    15     6     7    1
    16     7     8    1
    17     8     9    1
    18     7    10    1
    19    10    11    1
    20    11    12    1
    21    11    13    1
    22    13    14   ar
    23    14    15   ar
    24    15    16   ar
    25    16    17   ar
    26    17    18   ar
    27    18    19    1
    28    24    22    1
    29    30    25   ar
    30     9     4    1
    31    18    13   ar
    32    19     7    1
    33     3    20    1
    34    12    21    1
@<TRIPOS>MOLECULE
*****
 30 34 0 0 0
SMALL
GASTEIGER

@<TRIPOS>ATOM
      1 O          63.4964   87.6655   16.7059 O.2     1  UNL1       -0.2526
      2 C          63.6581   87.4080   15.2370 C.2     1  UNL1        0.3039
      3 N          63.9968   88.5379   14.3104 N.am    1  UNL1       -0.2901
      4 N          63.4810   86.0207   14.6948 N.am    1  UNL1       -0.2640
      5 C          63.1422   84.8908   15.6214 C.3     1  UNL1        0.0985
      6 C          62.9651   83.5036   15.0792 C.3     1  UNL1        0.0617
      7 C          63.1268   83.2461   13.6103 C.3     1  UNL1        0.1392
      8 C          63.4655   84.3759   12.6837 C.3     1  UNL1        0.0617
      9 C          63.6426   85.7632   13.2259 C.3     1  UNL1        0.0985
     10 C          62.7880   82.1162   14.5370 C.3     1  UNL1        0.0756
     11 C          62.6109   80.7289   13.9947 C.3     1  UNL1        0.1566
     12 O          62.2721   79.5990   14.9214 O.3     1  UNL1       -0.3783
     13 C          62.7726   80.4715   12.5259 C.ar    1  UNL1        0.1195
     14 N          62.5955   79.0841   11.9836 N.ar    1  UNL1       -0.2427
     15 C          62.7572   78.8267   10.5148 C.ar    1  UNL1        0.0988
     16 C          63.0959   79.9566    9.5881 C.ar    1  UNL1        0.0238
     17 C          63.2730   81.3438   10.1303 C.ar    1  UNL1        0.0398
     18 C          63.1113   81.6013   11.5992 C.ar    1  UNL1        0.1540
     19 O          63.2885   82.9887   12.1414 O.3     1  UNL1       -0.4811
     20 H          64.1029   88.3689   13.3463 H       1  UNL1        0.1509
     21 H          62.1937   78.7765   14.4132 H       1  UNL1        0.2109
     22 C          64.1739   89.9252   14.8526 C.3     1  UNL1        0.0774
     23 C          63.5998   91.1488   15.5031 C.3     1  UNL1        0.0259
     24 C          65.0548   91.1046   15.1412 C.3     1  UNL1        0.0420
     25 C          66.4033   91.7599   15.0988 C.ar    1  UNL1       -0.0208
     26 C          66.8044   92.7210   16.1783 C.ar    1  UNL1       -0.0042
     27 C          68.1530   93.3764   16.1359 C.ar    1  UNL1       -0.0003
     28 C          69.1006   93.0705   15.0140 C.ar    1  UNL1       -0.0000
     29 C          68.6995   92.1094   13.9345 C.ar    1  UNL1       -0.0003
     30 C          67.3509   91.4540   13.9769 C.ar    1  UNL1       -0.0042
@<TRIPOS>BOND
     1     1     2    2
     2     2     3   am
     3    22     3    1
     4    22    23    1
     5    23    24    1
     6    24    25    1
     7    25    26   ar
     8    26    27   ar
     9    27    28   ar
    10    28    29   ar
    11    29    30   ar
    12     2     4   am
    13     4     5    1
    14     5     6    1
    15     6     7    1
    16     7     8    1
    17     8     9    1
    18     7    10    1
    19    10    11    1
    20    11    12    1
    21    11    13    1
    22    13    14   ar
    23    14    15   ar
    24    15    16   ar
    25    16    17   ar
    26    17    18   ar
    27    18    19    1
    28    24    22    1
    29    30    25   ar
    30     9     4    1
    31    18    13   ar
    32    19     7    1
    33     3    20    1
    34    12    21    1
@<TRIPOS>MOLECULE
*****
 30 34 0 0 0
SMALL
GASTEIGER

@<TRIPOS>ATOM
      1 O          72.9236   77.7376   16.0023 O.2     1  UNL1       -0.2526
      2 C          72.9178   77.1136   14.6383 C.2     1  UNL1        0.3039
      3 N          73.0448   75.6260   14.4935 N.am    1  UNL1       -0.2901
      4 N          72.7850   77.9772   13.4190 N.am    1  UNL1       -0.2640
      5 C          72.6580   79.4648   13.5638 C.3     1  UNL1        0.0985
      6 C          72.5252   80.3283   12.3446 C.3     1  UNL1        0.0617
      7 C          72.5193   79.7043   10.9805 C.3     1  UNL1        0.1392
      8 C          72.6463   78.2168   10.8357 C.3     1  UNL1        0.0617
      9 C          72.7791   77.3532   12.0550 C.3     1  UNL1        0.0985
     10 C          72.3923   81.1920   11.1253 C.3     1  UNL1        0.0756
     11 C          72.2595   82.0555    9.9061 C.3     1  UNL1        0.1566
     12 O          72.1325   83.5432   10.0508 O.3     1  UNL1       -0.3783
     13 C          72.2537   81.4315    8.5420 C.ar    1  UNL1        0.1195
     14 N          72.1209   82.2952    7.3227 N.ar    1  UNL1       -0.2427
     15 C          72.1151   81.6712    5.9587 C.ar    1  UNL1        0.0988
     16 C          72.2421   80.1835    5.8139 C.ar    1  UNL1        0.0238
     17 C          72.3749   79.3200    7.0332 C.ar    1  UNL1        0.0398
     18 C          72.3807   79.9440    8.3972 C.ar    1  UNL1        0.1540
     19 O          72.5135   79.0803    9.6165 O.3     1  UNL1       -0.4811
     20 H          73.0410   75.2165   13.5982 H       1  UNL1        0.1509
     21 H          72.0564   83.9481    9.1727 H       1  UNL1        0.2109
     22 C          73.1776   74.7624   15.7128 C.3     1  UNL1        0.0774
     23 C          73.6330   74.5768   17.1298 C.3     1  UNL1        0.0259
     24 C          72.9523   73.4522   16.4075 C.3     1  UNL1        0.0420
     25 C          72.4291   72.0465   16.3915 C.ar    1  UNL1       -0.0208
     26 C          71.6024   71.5408   17.5364 C.ar    1  UNL1       -0.0042
     27 C          71.0792   70.1351   17.5204 C.ar    1  UNL1       -0.0003
     28 C          71.3828   69.2350   16.3594 C.ar    1  UNL1       -0.0000
     29 C          72.2096   69.7407   15.2145 C.ar    1  UNL1       -0.0003
     30 C          72.7327   71.1465   15.2306 C.ar    1  UNL1       -0.0042
@<TRIPOS>BOND
     1     1     2    2
     2     2     3   am
     3    22     3    1
     4    22    23    1
     5    23    24    1
     6    24    25    1
     7    25    26   ar
     8    26    27   ar
     9    27    28   ar
    10    28    29   ar
    11    29    30   ar
    12     2     4   am
    13     4     5    1
    14     5     6    1
    15     6     7    1
    16     7     8    1
    17     8     9    1
    18     7    10    1
    19    10    11    1
    20    11    12    1
    21    11    13    1
    22    13    14   ar
    23    14    15   ar
    24    15    16   ar
    25    16    17   ar
    26    17    18   ar
    27    18    19    1
    28    24    22    1
    29    30    25   ar
    30     9     4    1
    31    18    13   ar
    32    19     7    1
    33     3    20    1
    34    12    21    1
@<TRIPOS>MOLECULE
*****
 30 34 0 0 0
SMALL
GASTEIGER

@<TRIPOS>ATOM
      1 O          58.0106   90.4686    5.8706 O.2     1  UNL1       -0.2526
      2 C          59.4770   90.4694    5.5550 C.2     1  UNL1        0.3039
      3 N          60.4043   89.5532    6.2971 N.am    1  UNL1       -0.2901
      4 N          60.0161   91.3864    4.4974 N.am    1  UNL1       -0.2640
      5 C          59.0887   92.3025    3.7553 C.3     1  UNL1        0.0985
      6 C          59.6278   93.2195    2.6977 C.3     1  UNL1        0.0617
      7 C          61.0943   93.2203    2.3822 C.3     1  UNL1        0.1392
      8 C          62.0216   92.3041    3.1242 C.3     1  UNL1        0.0617
      9 C          61.4825   91.3872    4.1818 C.3     1  UNL1        0.0985
     10 C          60.1669   94.1365    1.6401 C.3     1  UNL1        0.0756
     11 C          60.7060   95.0534    0.5825 C.3     1  UNL1        0.1566
     12 O          59.7786   95.9696   -0.1596 O.3     1  UNL1       -0.3783
     13 C          62.1724   95.0542    0.2669 C.ar    1  UNL1        0.1195
     14 N          62.7115   95.9712   -0.7907 N.ar    1  UNL1       -0.2427
     15 C          64.1779   95.9720   -1.1063 C.ar    1  UNL1        0.0988
     16 C          65.1053   95.0558   -0.3642 C.ar    1  UNL1        0.0238
     17 C          64.5662   94.1389    0.6934 C.ar    1  UNL1        0.0398
     18 C          63.0998   94.1381    1.0090 C.ar    1  UNL1        0.1540
     19 O          62.5607   93.2211    2.0666 O.3     1  UNL1       -0.4811
     20 H          61.3668   89.5538    6.0900 H       1  UNL1        0.1509
     21 H          60.2847   96.4902   -0.8029 H       1  UNL1        0.2109
     22 C          59.8653   88.6362    7.3547 C.3     1  UNL1        0.0774
     23 C          58.7057   88.0975    8.1389 C.3     1  UNL1        0.0259
     24 C          60.0912   87.5868    8.4024 C.3     1  UNL1        0.0420
     25 C          61.0216   86.6860    9.1593 C.ar    1  UNL1       -0.0208
     26 C          62.0336   85.8615    8.4204 C.ar    1  UNL1       -0.0042
     27 C          62.9640   84.9608    9.1774 C.ar    1  UNL1       -0.0003
     28 C          62.8824   84.8845   10.6733 C.ar    1  UNL1       -0.0000
     29 C          61.8703   85.7089   11.4121 C.ar    1  UNL1       -0.0003
     30 C          60.9399   86.6097   10.6551 C.ar    1  UNL1       -0.0042
@<TRIPOS>BOND
     1     1     2    2
     2     2     3   am
     3    22     3    1
     4    22    23    1
     5    23    24    1
     6    24    25    1
     7    25    26   ar
     8    26    27   ar
     9    27    28   ar
    10    28    29   ar
    11    29    30   ar
    12     2     4   am
    13     4     5    1
    14     5     6    1
    15     6     7    1
    16     7     8    1
    17     8     9    1
    18     7    10    1
    19    10    11    1
    20    11    12    1
    21    11    13    1
    22    13    14   ar
    23    14    15   ar
    24    15    16   ar
    25    16    17   ar
    26    17    18   ar
    27    18    19    1
    28    24    22    1
    29    30    25   ar
    30     9     4    1
    31    18    13   ar
    32    19     7    1
    33     3    20    1
    34    12    21    1
@<TRIPOS>MOLECULE
*****
 30 34 0 0 0
SMALL
GASTEIGER

@<TRIPOS>ATOM
      1 O          58.0581   91.2926    4.7887 O.2     1  UNL1       -0.2526
      2 C          59.5423   91.3739    4.5869 C.2     1  UNL1        0.3039
      3 N          60.4647   90.6059    5.4865 N.am    1  UNL1       -0.2901
      4 N          60.1040   92.2233    3.4855 N.am    1  UNL1       -0.2640
      5 C          59.1815   92.9913    2.5859 C.3     1  UNL1        0.0985
      6 C          59.7433   93.8406    1.4845 C.3     1  UNL1        0.0617
      7 C          61.2274   93.9219    1.2828 C.3     1  UNL1        0.1392
      8 C          62.1498   93.1540    2.1823 C.3     1  UNL1        0.0617
      9 C          61.5881   92.3046    3.2837 C.3     1  UNL1        0.0985
     10 C          60.3050   94.6900    0.3831 C.3     1  UNL1        0.0756
     11 C          60.8667   95.5393   -0.7183 C.3     1  UNL1        0.1566
     12 O          59.9443   96.3074   -1.6179 O.3     1  UNL1       -0.3783
     13 C          62.3508   95.6207   -0.9201 C.ar    1  UNL1        0.1195
     14 N          62.9125   96.4701   -2.0215 N.ar    1  UNL1       -0.2427
     15 C          64.3967   96.5514   -2.2233 C.ar    1  UNL1        0.0988
     16 C          65.3191   95.7834   -1.3236 C.ar    1  UNL1        0.0238
     17 C          64.7574   94.9340   -0.2223 C.ar    1  UNL1        0.0398
     18 C          63.2732   94.8527   -0.0205 C.ar    1  UNL1        0.1540
     19 O          62.7115   94.0033    1.0810 O.3     1  UNL1       -0.4811
     20 H          61.4388   90.6593    5.3541 H       1  UNL1        0.1509
     21 H          60.4656   96.8005   -2.2706 H       1  UNL1        0.2109
     22 C          59.9030   89.7565    6.5880 C.3     1  UNL1        0.0774
     23 C          58.8859   88.7680    7.0761 C.3     1  UNL1        0.0259
     24 C          59.9472   89.2739    8.0075 C.3     1  UNL1        0.0420
     25 C          60.5854   89.2875    9.3649 C.ar    1  UNL1       -0.0208
     26 C          61.7553   88.3938    9.6525 C.ar    1  UNL1       -0.0042
     27 C          62.3935   88.4073   11.0098 C.ar    1  UNL1       -0.0003
     28 C          61.8619   89.3146   12.0796 C.ar    1  UNL1       -0.0000
     29 C          60.6920   90.2083   11.7920 C.ar    1  UNL1       -0.0003
     30 C          60.0538   90.1947   10.4345 C.ar    1  UNL1       -0.0042
@<TRIPOS>BOND
     1     1     2    2
     2     2     3   am
     3    22     3    1
     4    22    23    1
     5    23    24    1
     6    24    25    1
     7    25    26   ar
     8    26    27   ar
     9    27    28   ar
    10    28    29   ar
    11    29    30   ar
    12     2     4   am
    13     4     5    1
    14     5     6    1
    15     6     7    1
    16     7     8    1
    17     8     9    1
    18     7    10    1
    19    10    11    1
    20    11    12    1
    21    11    13    1
    22    13    14   ar
    23    14    15   ar
    24    15    16   ar
    25    16    17   ar
    26    17    18   ar
    27    18    19    1
    28    24    22    1
    29    30    25   ar
    30     9     4    1
    31    18    13   ar
    32    19     7    1
    33     3    20    1
    34    12    21    1
@<TRIPOS>MOLECULE
*****
 30 34 0 0 0
SMALL
GASTEIGER

@<TRIPOS>ATOM
      1 O          64.0798   86.3616   16.0082 O.2     1  UNL1       -0.2526
      2 C          63.7997   86.9025   14.6374 C.2     1  UNL1        0.3039
      3 N          63.0700   86.0603   13.6334 N.am    1  UNL1       -0.2901
      4 N          64.2494   88.2858   14.2706 N.am    1  UNL1       -0.2640
      5 C          64.9792   89.1281   15.2746 C.3     1  UNL1        0.0985
      6 C          65.4289   90.5112   14.9078 C.3     1  UNL1        0.0617
      7 C          65.1488   91.0521   13.5371 C.3     1  UNL1        0.1392
      8 C          64.4191   90.2099   12.5331 C.3     1  UNL1        0.0617
      9 C          63.9694   88.8267   12.8999 C.3     1  UNL1        0.0985
     10 C          65.8786   91.8945   14.5411 C.3     1  UNL1        0.0756
     11 C          66.3283   93.2777   14.1743 C.3     1  UNL1        0.1566
     12 O          67.0580   94.1200   15.1783 O.3     1  UNL1       -0.3783
     13 C          66.0482   93.8186   12.8035 C.ar    1  UNL1        0.1195
     14 N          66.4979   95.2018   12.4368 N.ar    1  UNL1       -0.2427
     15 C          66.2179   95.7427   11.0660 C.ar    1  UNL1        0.0988
     16 C          65.4881   94.9004   10.0620 C.ar    1  UNL1        0.0238
     17 C          65.0384   93.5172   10.4288 C.ar    1  UNL1        0.0398
     18 C          65.3185   92.9763   11.7996 C.ar    1  UNL1        0.1540
     19 O          64.8687   91.5931   12.1663 O.3     1  UNL1       -0.4811
     20 H          62.8862   86.4153   12.7337 H       1  UNL1        0.1509
     21 H          67.2750   94.9789   14.7831 H       1  UNL1        0.2109
     22 C          62.6203   84.6770   14.0002 C.3     1  UNL1        0.0774
     23 C          61.9949   83.7323   14.9832 C.3     1  UNL1        0.0259
     24 C          62.4667   83.2260   13.6524 C.3     1  UNL1        0.0420
     25 C          62.6504   82.0960   12.6832 C.ar    1  UNL1       -0.0208
     26 C          63.1102   82.3759   11.2832 C.ar    1  UNL1       -0.0042
     27 C          63.2939   81.2459   10.3140 C.ar    1  UNL1       -0.0003
     28 C          63.0178   79.8359   10.7449 C.ar    1  UNL1       -0.0000
     29 C          62.5580   79.5559   12.1450 C.ar    1  UNL1       -0.0003
     30 C          62.3743   80.6860   13.1142 C.ar    1  UNL1       -0.0042
@<TRIPOS>BOND
     1     1     2    2
     2     2     3   am
     3    22     3    1
     4    22    23    1
     5    23    24    1
     6    24    25    1
     7    25    26   ar
     8    26    27   ar
     9    27    28   ar
    10    28    29   ar
    11    29    30   ar
    12     2     4   am
    13     4     5    1
    14     5     6    1
    15     6     7    1
    16     7     8    1
    17     8     9    1
    18     7    10    1
    19    10    11    1
    20    11    12    1
    21    11    13    1
    22    13    14   ar
    23    14    15   ar
    24    15    16   ar
    25    16    17   ar
    26    17    18   ar
    27    18    19    1
    28    24    22    1
    29    30    25   ar
    30     9     4    1
    31    18    13   ar
    32    19     7    1
    33     3    20    1
    34    12    21    1
@<TRIPOS>MOLECULE
*****
 30 34 0 0 0
SMALL
GASTEIGER

@<TRIPOS>ATOM
      1 O          59.1517   94.2081   -0.9999 O.2     1  UNL1       -0.2526
      2 C          58.8287   94.4003   -2.4521 C.2     1  UNL1        0.3039
      3 N          59.8970   94.2163   -3.4888 N.am    1  UNL1       -0.2901
      4 N          57.4372   94.7765   -2.8675 N.am    1  UNL1       -0.2640
      5 C          56.3689   94.9605   -1.8308 C.3     1  UNL1        0.0985
      6 C          54.9776   95.3366   -2.2462 C.3     1  UNL1        0.0617
      7 C          54.6546   95.5288   -3.6983 C.3     1  UNL1        0.1392
      8 C          55.7229   95.3448   -4.7350 C.3     1  UNL1        0.0617
      9 C          57.1142   94.9687   -4.3196 C.3     1  UNL1        0.0985
     10 C          53.5862   95.7128   -2.6616 C.3     1  UNL1        0.0756
     11 C          52.1948   96.0890   -3.0770 C.3     1  UNL1        0.1566
     12 O          51.1264   96.2730   -2.0402 O.3     1  UNL1       -0.3783
     13 C          51.8718   96.2812   -4.5291 C.ar    1  UNL1        0.1195
     14 N          50.4804   96.6574   -4.9445 N.ar    1  UNL1       -0.2427
     15 C          50.1573   96.8496   -6.3966 C.ar    1  UNL1        0.0988
     16 C          51.2257   96.6656   -7.4334 C.ar    1  UNL1        0.0238
     17 C          52.6170   96.2894   -7.0180 C.ar    1  UNL1        0.0398
     18 C          52.9401   96.0972   -5.5658 C.ar    1  UNL1        0.1540
     19 O          54.3315   95.7210   -5.1504 O.3     1  UNL1       -0.4811
     20 H          59.6849   94.3424   -4.4419 H       1  UNL1        0.1509
     21 H          50.2927   96.5128   -2.4742 H       1  UNL1        0.2109
     22 C          61.2884   93.8401   -3.0734 C.3     1  UNL1        0.0774
     23 C          62.7103   93.5242   -3.4315 C.3     1  UNL1        0.0259
     24 C          62.2764   93.5044   -1.9958 C.3     1  UNL1        0.0420
     25 C          62.5963   93.2991   -0.5448 C.ar    1  UNL1       -0.0208
     26 C          63.8745   93.8389    0.0251 C.ar    1  UNL1       -0.0042
     27 C          64.1943   93.6336    1.4761 C.ar    1  UNL1       -0.0003
     28 C          63.2360   92.8885    2.3573 C.ar    1  UNL1       -0.0000
     29 C          61.9578   92.3487    1.7874 C.ar    1  UNL1       -0.0003
     30 C          61.6379   92.5540    0.3363 C.ar    1  UNL1       -0.0042
@<TRIPOS>BOND
     1     1     2    2
     2     2     3   am
     3    22     3    1
     4    22    23    1
     5    23    24    1
     6    24    25    1
     7    25    26   ar
     8    26    27   ar
     9    27    28   ar
    10    28    29   ar
    11    29    30   ar
    12     2     4   am
    13     4     5    1
    14     5     6    1
    15     6     7    1
    16     7     8    1
    17     8     9    1
    18     7    10    1
    19    10    11    1
    20    11    12    1
    21    11    13    1
    22    13    14   ar
    23    14    15   ar
    24    15    16   ar
    25    16    17   ar
    26    17    18   ar
    27    18    19    1
    28    24    22    1
    29    30    25   ar
    30     9     4    1
    31    18    13   ar
    32    19     7    1
    33     3    20    1
    34    12    21    1
@<TRIPOS>MOLECULE
*****
 30 34 0 0 0
SMALL
GASTEIGER

@<TRIPOS>ATOM
      1 O          61.3647   91.2275    5.1419 O.2     1  UNL1       -0.2526
      2 C          60.5097   91.7713    4.0358 C.2     1  UNL1        0.3039
      3 N          59.0251   91.5586    4.0617 N.am    1  UNL1       -0.2901
      4 N          61.1394   92.5279    2.9039 N.am    1  UNL1       -0.2640
      5 C          62.6239   92.7407    2.8780 C.3     1  UNL1        0.0985
      6 C          63.2535   93.4973    1.7462 C.3     1  UNL1        0.0617
      7 C          62.3985   94.0410    0.6401 C.3     1  UNL1        0.1392
      8 C          60.9139   93.8283    0.6660 C.3     1  UNL1        0.0617
      9 C          60.2843   93.0717    1.7979 C.3     1  UNL1        0.0985
     10 C          63.8831   94.2538    0.6142 C.3     1  UNL1        0.0756
     11 C          64.5127   95.0104   -0.5177 C.3     1  UNL1        0.1566
     12 O          65.9974   95.2232   -0.5436 O.3     1  UNL1       -0.3783
     13 C          63.6577   95.5542   -1.6237 C.ar    1  UNL1        0.1195
     14 N          64.2873   96.3108   -2.7556 N.ar    1  UNL1       -0.2427
     15 C          63.4323   96.8546   -3.8616 C.ar    1  UNL1        0.0988
     16 C          61.9477   96.6418   -3.8357 C.ar    1  UNL1        0.0238
     17 C          61.3181   95.8852   -2.7038 C.ar    1  UNL1        0.0398
     18 C          62.1731   95.3414   -1.5978 C.ar    1  UNL1        0.1540
     19 O          61.5435   94.5848   -0.4659 O.3     1  UNL1       -0.4811
     20 H          58.4640   91.9155    3.3358 H       1  UNL1        0.1509
     21 H          66.2380   95.7268   -1.3369 H       1  UNL1        0.2109
     22 C          58.3955   90.8020    5.1937 C.3     1  UNL1        0.0774
     23 C          57.1773   90.4136    5.9778 C.3     1  UNL1        0.0259
     24 C          58.5232   89.8800    6.3699 C.3     1  UNL1        0.0420
     25 C          59.3740   89.0396    7.2754 C.ar    1  UNL1       -0.0208
     26 C          60.1723   89.6866    8.3682 C.ar    1  UNL1       -0.0042
     27 C          61.0231   88.8462    9.2736 C.ar    1  UNL1       -0.0003
     28 C          61.0756   87.3588    9.0864 C.ar    1  UNL1       -0.0000
     29 C          60.2773   86.7119    7.9936 C.ar    1  UNL1       -0.0003
     30 C          59.4264   87.5523    7.0881 C.ar    1  UNL1       -0.0042
@<TRIPOS>BOND
     1     1     2    2
     2     2     3   am
     3    22     3    1
     4    22    23    1
     5    23    24    1
     6    24    25    1
     7    25    26   ar
     8    26    27   ar
     9    27    28   ar
    10    28    29   ar
    11    29    30   ar
    12     2     4   am
    13     4     5    1
    14     5     6    1
    15     6     7    1
    16     7     8    1
    17     8     9    1
    18     7    10    1
    19    10    11    1
    20    11    12    1
    21    11    13    1
    22    13    14   ar
    23    14    15   ar
    24    15    16   ar
    25    16    17   ar
    26    17    18   ar
    27    18    19    1
    28    24    22    1
    29    30    25   ar
    30     9     4    1
    31    18    13   ar
    32    19     7    1
    33     3    20    1
    34    12    21    1
