@<TRIPOS>MOLECULE
*****
 28 31 0 0 0
SMALL
GASTEIGER

@<TRIPOS>ATOM
      1 C          61.8815   88.5850   10.9519 C.ar    1  UNL1        0.0434
      2 C          61.0451   88.1518    9.7844 C.ar    1  UNL1        0.0045
      3 C          60.8715   86.6920    9.4868 C.ar    1  UNL1        0.0561
      4 N          61.5343   85.6652   10.3566 N.ar    1  UNL1       -0.2499
      5 C          62.3707   86.0984   11.5240 C.ar    1  UNL1        0.0829
      6 C          63.0335   85.0716   12.3939 C.ar    1  UNL1        0.0305
      7 C          63.8698   85.5048   13.5613 C.ar    1  UNL1        0.0592
      8 CL         64.5326   84.4781   14.4310 Cl      1  UNL1       -0.0822
      9 C          64.0434   86.9647   13.8589 C.ar    1  UNL1        0.0115
     10 C          63.3806   87.9914   12.9891 C.ar    1  UNL1        0.0036
     11 C          62.5442   87.5583   11.8217 C.ar    1  UNL1        0.0305
     12 C          60.0352   86.2588    8.3194 C.3     1  UNL1        0.0455
     13 C          59.3724   87.2855    7.4496 C.3     1  UNL1        0.0066
     14 C          59.5460   88.7454    7.7473 C.3     1  UNL1        0.0052
     15 C          60.3823   89.1786    8.9147 C.3     1  UNL1        0.0288
     16 N          62.0550   90.0449   11.2495 N.pl3   1  UNL1       -0.3292
     17 H          61.4531   90.4922   11.8873 H       1  UNL1        0.1471
     18 C          63.1458   90.8233   10.5754 C.3     1  UNL1        0.1144
     19 C          66.3385   92.8194   13.0395 C.ar    1  UNL1        0.1724
     20 C          65.4026   91.8367   13.6785 C.ar    1  UNL1        0.0398
     21 C          64.3384   91.1713   12.8571 C.ar    1  UNL1        0.0007
     22 C          64.2100   91.4886   11.3967 C.ar    1  UNL1        0.0006
     23 C          65.1460   92.4714   10.7576 C.ar    1  UNL1        0.0374
     24 C          66.2102   93.1367   11.5790 C.ar    1  UNL1        0.1721
     25 C          67.4223   93.3061   15.3500 C.3     1  UNL1        0.2526
     26 O          67.4028   93.4848   13.8609 O.3     1  UNL1       -0.4684
     27 O          67.1461   94.1194   10.9400 O.3     1  UNL1       -0.4684
     28 C          67.4774   94.0006    9.4818 C.3     1  UNL1        0.2526
@<TRIPOS>BOND
     1    25    26    1
     2    26    19    1
     3    19    20   ar
     4    20    21   ar
     5    21    22   ar
     6    22    18    1
     7    18    16    1
     8    16     1    1
     9     1     2   ar
    10     2     3   ar
    11     3     4   ar
    12     4     5   ar
    13     5     6   ar
    14     6     7   ar
    15     7     8    1
    16     7     9   ar
    17     9    10   ar
    18    10    11   ar
    19     3    12    1
    20    12    13    1
    21    13    14    1
    22    14    15    1
    23    22    23   ar
    24    23    24   ar
    25    24    27    1
    26    27    28    1
    27    24    19   ar
    28    11     1   ar
    29    15     2    1
    30    11     5   ar
    31    16    17    1
@<TRIPOS>MOLECULE
*****
 28 31 0 0 0
SMALL
GASTEIGER

@<TRIPOS>ATOM
      1 C          61.9492   88.7147   10.9952 C.ar    1  UNL1        0.0434
      2 C          61.1237   88.2657    9.8260 C.ar    1  UNL1        0.0045
      3 C          60.9508   86.8019    9.5480 C.ar    1  UNL1        0.0561
      4 N          61.6035   85.7870   10.4391 N.ar    1  UNL1       -0.2499
      5 C          62.4290   86.2360   11.6083 C.ar    1  UNL1        0.0829
      6 C          63.0816   85.2212   12.4995 C.ar    1  UNL1        0.0305
      7 C          63.9071   85.6702   13.6686 C.ar    1  UNL1        0.0592
      8 CL         64.5597   84.6553   14.5597 Cl      1  UNL1       -0.0822
      9 C          64.0800   87.1340   13.9466 C.ar    1  UNL1        0.0115
     10 C          63.4274   88.1488   13.0555 C.ar    1  UNL1        0.0036
     11 C          62.6018   87.6999   11.8863 C.ar    1  UNL1        0.0305
     12 C          60.1253   86.3529    8.3788 C.3     1  UNL1        0.0455
     13 C          59.4727   87.3677    7.4877 C.3     1  UNL1        0.0066
     14 C          59.6456   88.8316    7.7657 C.3     1  UNL1        0.0052
     15 C          60.4710   89.2806    8.9349 C.3     1  UNL1        0.0288
     16 N          62.1221   90.1785   11.2732 N.pl3   1  UNL1       -0.3292
     17 H          61.5026   90.6402   11.8834 H       1  UNL1        0.1471
     18 C          63.2388   90.9390   10.6215 C.3     1  UNL1        0.1144
     19 C          66.4381   92.8444   13.1481 C.ar    1  UNL1        0.1724
     20 C          66.4740   92.9916   11.6558 C.ar    1  UNL1        0.0398
     21 C          65.4076   92.3564   10.8136 C.ar    1  UNL1        0.0007
     22 C          64.3052   91.5741   11.4637 C.ar    1  UNL1        0.0006
     23 C          64.2692   91.4269   12.9560 C.ar    1  UNL1        0.0374
     24 C          65.3356   92.0621   13.7983 C.ar    1  UNL1        0.1721
     25 C          68.3836   92.6267   14.8561 C.3     1  UNL1        0.2526
     26 O          67.5045   93.4796   13.9903 O.3     1  UNL1       -0.4684
     27 O          65.2997   91.9149   15.2906 O.3     1  UNL1       -0.4684
     28 C          64.1378   91.2318   15.9491 C.3     1  UNL1        0.2526
@<TRIPOS>BOND
     1    25    26    1
     2    26    19    1
     3    19    20   ar
     4    20    21   ar
     5    21    22   ar
     6    22    18    1
     7    18    16    1
     8    16     1    1
     9     1     2   ar
    10     2     3   ar
    11     3     4   ar
    12     4     5   ar
    13     5     6   ar
    14     6     7   ar
    15     7     8    1
    16     7     9   ar
    17     9    10   ar
    18    10    11   ar
    19     3    12    1
    20    12    13    1
    21    13    14    1
    22    14    15    1
    23    22    23   ar
    24    23    24   ar
    25    24    27    1
    26    27    28    1
    27    24    19   ar
    28    11     1   ar
    29    15     2    1
    30    11     5   ar
    31    16    17    1
@<TRIPOS>MOLECULE
*****
 28 31 0 0 0
SMALL
GASTEIGER

@<TRIPOS>ATOM
      1 C          62.4757   88.0889   12.1300 C.ar    1  UNL1        0.0434
      2 C          63.1965   86.9794   12.8369 C.ar    1  UNL1        0.0045
      3 C          63.0985   85.5738   12.3223 C.ar    1  UNL1        0.0561
      4 N          62.2796   85.2778   11.1008 N.ar    1  UNL1       -0.2499
      5 C          61.5589   86.3872   10.3940 C.ar    1  UNL1        0.0829
      6 C          60.7401   86.0911    9.1725 C.ar    1  UNL1        0.0305
      7 C          60.0193   87.2006    8.4657 C.ar    1  UNL1        0.0592
      8 CL         59.2006   86.9044    7.2443 Cl      1  UNL1       -0.0822
      9 C          60.1174   88.6061    8.9803 C.ar    1  UNL1        0.0115
     10 C          60.9361   88.9022   10.2017 C.ar    1  UNL1        0.0036
     11 C          61.6569   87.7928   10.9086 C.ar    1  UNL1        0.0305
     12 C          63.8192   84.4644   13.0291 C.3     1  UNL1        0.0455
     13 C          64.6380   84.7605   14.2505 C.3     1  UNL1        0.0066
     14 C          64.7360   86.1661   14.7651 C.3     1  UNL1        0.0052
     15 C          64.0153   87.2755   14.0583 C.3     1  UNL1        0.0288
     16 N          62.5737   89.4944   12.6446 N.pl3   1  UNL1       -0.3292
     17 H          62.1482   89.7367   13.4986 H       1  UNL1        0.1471
     18 C          63.3202   90.5308   11.8579 C.3     1  UNL1        0.1144
     19 C          66.7738   92.7232   13.7329 C.ar    1  UNL1        0.1724
     20 C          66.0910   91.6181   14.4828 C.ar    1  UNL1        0.0398
     21 C          64.9398   90.8873   13.8578 C.ar    1  UNL1        0.0007
     22 C          64.4714   91.2616   12.4829 C.ar    1  UNL1        0.0006
     23 C          65.1542   92.3667   11.7329 C.ar    1  UNL1        0.0374
     24 C          66.3055   93.0975   12.3579 C.ar    1  UNL1        0.1721
     25 C          68.1232   93.4102   15.8440 C.3     1  UNL1        0.2526
     26 O          67.9250   93.4540   14.3579 O.3     1  UNL1       -0.4684
     27 O          66.9883   94.2026   11.6079 O.3     1  UNL1       -0.4684
     28 C          66.2239   95.4369   11.2305 C.3     1  UNL1        0.2526
@<TRIPOS>BOND
     1    25    26    1
     2    26    19    1
     3    19    20   ar
     4    20    21   ar
     5    21    22   ar
     6    22    18    1
     7    18    16    1
     8    16     1    1
     9     1     2   ar
    10     2     3   ar
    11     3     4   ar
    12     4     5   ar
    13     5     6   ar
    14     6     7   ar
    15     7     8    1
    16     7     9   ar
    17     9    10   ar
    18    10    11   ar
    19     3    12    1
    20    12    13    1
    21    13    14    1
    22    14    15    1
    23    22    23   ar
    24    23    24   ar
    25    24    27    1
    26    27    28    1
    27    24    19   ar
    28    11     1   ar
    29    15     2    1
    30    11     5   ar
    31    16    17    1
@<TRIPOS>MOLECULE
*****
 28 31 0 0 0
SMALL
GASTEIGER

@<TRIPOS>ATOM
      1 C          62.1053   88.4120   11.2981 C.ar    1  UNL1        0.0434
      2 C          61.2662   88.0697   10.1027 C.ar    1  UNL1        0.0045
      3 C          61.0602   86.6348    9.7172 C.ar    1  UNL1        0.0561
      4 N          61.6932   85.5423   10.5269 N.ar    1  UNL1       -0.2499
      5 C          62.5322   85.8846   11.7222 C.ar    1  UNL1        0.0829
      6 C          63.1653   84.7921   12.5320 C.ar    1  UNL1        0.0305
      7 C          64.0043   85.1344   13.7273 C.ar    1  UNL1        0.0592
      8 CL         64.6373   84.0419   14.5370 Cl      1  UNL1       -0.0822
      9 C          64.2104   86.5693   14.1129 C.ar    1  UNL1        0.0115
     10 C          63.5774   87.6618   13.3032 C.ar    1  UNL1        0.0036
     11 C          62.7383   87.3195   12.1078 C.ar    1  UNL1        0.0305
     12 C          60.2211   86.2925    8.5219 C.3     1  UNL1        0.0455
     13 C          59.5882   87.3850    7.7122 C.3     1  UNL1        0.0066
     14 C          59.7942   88.8199    8.0977 C.3     1  UNL1        0.0052
     15 C          60.6333   89.1622    9.2930 C.3     1  UNL1        0.0288
     16 N          62.3114   89.8469   11.6837 N.pl3   1  UNL1       -0.3292
     17 H          61.7029   90.5409   11.3411 H       1  UNL1        0.1471
     18 C          63.4446   90.2243   12.5911 C.3     1  UNL1        0.1144
     19 C          66.2194   93.5783   11.4503 C.ar    1  UNL1        0.1724
     20 C          65.2582   93.0239   10.4410 C.ar    1  UNL1        0.0398
     21 C          64.3333   91.9059   10.8213 C.ar    1  UNL1        0.0007
     22 C          64.3695   91.3423   12.2109 C.ar    1  UNL1        0.0006
     23 C          65.3307   91.8967   13.2203 C.ar    1  UNL1        0.0374
     24 C          66.2556   93.0147   12.8400 C.ar    1  UNL1        0.1721
     25 C          67.3248   95.0623    9.6266 C.3     1  UNL1        0.2526
     26 O          67.1443   94.6963   11.0700 O.3     1  UNL1       -0.4684
     27 O          67.2168   93.5692   13.8493 O.3     1  UNL1       -0.4684
     28 C          67.1076   93.1653   15.2898 C.3     1  UNL1        0.2526
@<TRIPOS>BOND
     1    25    26    1
     2    26    19    1
     3    19    20   ar
     4    20    21   ar
     5    21    22   ar
     6    22    18    1
     7    18    16    1
     8    16     1    1
     9     1     2   ar
    10     2     3   ar
    11     3     4   ar
    12     4     5   ar
    13     5     6   ar
    14     6     7   ar
    15     7     8    1
    16     7     9   ar
    17     9    10   ar
    18    10    11   ar
    19     3    12    1
    20    12    13    1
    21    13    14    1
    22    14    15    1
    23    22    23   ar
    24    23    24   ar
    25    24    27    1
    26    27    28    1
    27    24    19   ar
    28    11     1   ar
    29    15     2    1
    30    11     5   ar
    31    16    17    1
@<TRIPOS>MOLECULE
*****
 28 31 0 0 0
SMALL
GASTEIGER

@<TRIPOS>ATOM
      1 C          62.7812   87.3023   12.0365 C.ar    1  UNL1        0.0434
      2 C          63.0817   85.8865   12.4307 C.ar    1  UNL1        0.0045
      3 C          62.4994   84.7494   11.6447 C.ar    1  UNL1        0.0561
      4 N          61.6165   85.0281   10.4645 N.ar    1  UNL1       -0.2499
      5 C          61.3160   86.4438   10.0703 C.ar    1  UNL1        0.0829
      6 C          60.4331   86.7225    8.8901 C.ar    1  UNL1        0.0305
      7 C          60.1326   88.1382    8.4959 C.ar    1  UNL1        0.0592
      8 CL         59.2498   88.4168    7.3157 Cl      1  UNL1       -0.0822
      9 C          60.7150   89.2753    9.2819 C.ar    1  UNL1        0.0115
     10 C          61.5978   88.9967   10.4621 C.ar    1  UNL1        0.0036
     11 C          61.8984   87.5809   10.8563 C.ar    1  UNL1        0.0305
     12 C          62.7998   83.3337   12.0389 C.3     1  UNL1        0.0455
     13 C          63.6827   83.0550   13.2191 C.3     1  UNL1        0.0066
     14 C          64.2651   84.1921   14.0051 C.3     1  UNL1        0.0052
     15 C          63.9646   85.6079   13.6109 C.3     1  UNL1        0.0288
     16 N          63.3636   88.4394   12.8226 N.pl3   1  UNL1       -0.3292
     17 H          64.0483   88.2643   13.5079 H       1  UNL1        0.1471
     18 C          62.9026   89.8433   12.5644 C.3     1  UNL1        0.1144
     19 C          65.9173   93.0997   11.8178 C.ar    1  UNL1        0.1724
     20 C          65.0442   92.6150   10.6985 C.ar    1  UNL1        0.0398
     21 C          64.0393   91.5295   10.9474 C.ar    1  UNL1        0.0007
     22 C          63.9075   90.9288   12.3155 C.ar    1  UNL1        0.0006
     23 C          64.7807   91.4135   13.4348 C.ar    1  UNL1        0.0374
     24 C          65.7855   92.4990   13.1859 C.ar    1  UNL1        0.1721
     25 C          66.4989   95.4607   10.9028 C.3     1  UNL1        0.2526
     26 O          66.9222   94.1852   11.5689 O.3     1  UNL1       -0.4684
     27 O          66.6586   92.9837   14.3051 O.3     1  UNL1       -0.4684
     28 C          67.6987   92.0760   14.8921 C.3     1  UNL1        0.2526
@<TRIPOS>BOND
     1    25    26    1
     2    26    19    1
     3    19    20   ar
     4    20    21   ar
     5    21    22   ar
     6    22    18    1
     7    18    16    1
     8    16     1    1
     9     1     2   ar
    10     2     3   ar
    11     3     4   ar
    12     4     5   ar
    13     5     6   ar
    14     6     7   ar
    15     7     8    1
    16     7     9   ar
    17     9    10   ar
    18    10    11   ar
    19     3    12    1
    20    12    13    1
    21    13    14    1
    22    14    15    1
    23    22    23   ar
    24    23    24   ar
    25    24    27    1
    26    27    28    1
    27    24    19   ar
    28    11     1   ar
    29    15     2    1
    30    11     5   ar
    31    16    17    1
@<TRIPOS>MOLECULE
*****
 28 31 0 0 0
SMALL
GASTEIGER

@<TRIPOS>ATOM
      1 C          62.5157   87.5134   12.0110 C.ar    1  UNL1        0.0434
      2 C          63.2379   88.6844   12.6088 C.ar    1  UNL1        0.0045
      3 C          63.1186   90.0404   11.9786 C.ar    1  UNL1        0.0561
      4 N          62.2771   90.2253   10.7506 N.ar    1  UNL1       -0.2499
      5 C          61.5550   89.0543   10.1529 C.ar    1  UNL1        0.0829
      6 C          60.7135   89.2393    8.9250 C.ar    1  UNL1        0.0305
      7 C          59.9914   88.0683    8.3273 C.ar    1  UNL1        0.0592
      8 CL         59.1500   88.2533    7.0994 Cl      1  UNL1       -0.0822
      9 C          60.1107   86.7124    8.9575 C.ar    1  UNL1        0.0115
     10 C          60.9521   86.5274   10.1854 C.ar    1  UNL1        0.0036
     11 C          61.6743   87.6984   10.7831 C.ar    1  UNL1        0.0305
     12 C          63.8407   91.2114   12.5762 C.3     1  UNL1        0.0455
     13 C          64.6822   91.0264   13.8041 C.3     1  UNL1        0.0066
     14 C          64.8014   89.6704   14.4343 C.3     1  UNL1        0.0052
     15 C          64.0793   88.4994   13.8366 C.3     1  UNL1        0.0288
     16 N          62.6350   86.1575   12.6412 N.pl3   1  UNL1       -0.3292
     17 H          61.9584   85.8545   13.2890 H       1  UNL1        0.1471
     18 C          63.7852   85.2631   12.2843 C.3     1  UNL1        0.1144
     19 C          63.0566   80.9180   11.3683 C.ar    1  UNL1        0.1724
     20 C          63.6811   81.8079   10.3349 C.ar    1  UNL1        0.0398
     21 C          63.9240   83.2562   10.6402 C.ar    1  UNL1        0.0007
     22 C          63.5423   83.8147   11.9790 C.ar    1  UNL1        0.0006
     23 C          62.9177   82.9248   13.0125 C.ar    1  UNL1        0.0374
     24 C          62.6749   81.4764   12.7072 C.ar    1  UNL1        0.1721
     25 C          62.7896   78.9970    9.6396 C.3     1  UNL1        0.2526
     26 O          62.8138   79.4696   11.0629 O.3     1  UNL1       -0.4684
     27 O          62.0504   80.5866   13.7406 O.3     1  UNL1       -0.4684
     28 C          60.6164   80.7850   14.1335 C.3     1  UNL1        0.2526
@<TRIPOS>BOND
     1    25    26    1
     2    26    19    1
     3    19    20   ar
     4    20    21   ar
     5    21    22   ar
     6    22    18    1
     7    18    16    1
     8    16     1    1
     9     1     2   ar
    10     2     3   ar
    11     3     4   ar
    12     4     5   ar
    13     5     6   ar
    14     6     7   ar
    15     7     8    1
    16     7     9   ar
    17     9    10   ar
    18    10    11   ar
    19     3    12    1
    20    12    13    1
    21    13    14    1
    22    14    15    1
    23    22    23   ar
    24    23    24   ar
    25    24    27    1
    26    27    28    1
    27    24    19   ar
    28    11     1   ar
    29    15     2    1
    30    11     5   ar
    31    16    17    1
@<TRIPOS>MOLECULE
*****
 28 31 0 0 0
SMALL
GASTEIGER

@<TRIPOS>ATOM
      1 C          62.4836   88.7058   11.8351 C.ar    1  UNL1        0.0434
      2 C          63.1592   87.6880   12.7056 C.ar    1  UNL1        0.0045
      3 C          63.0203   86.2267   12.3971 C.ar    1  UNL1        0.0561
      4 N          62.2057   85.7831   11.2182 N.ar    1  UNL1       -0.2499
      5 C          61.5302   86.8009   10.3477 C.ar    1  UNL1        0.0829
      6 C          60.7156   86.3574    9.1688 C.ar    1  UNL1        0.0305
      7 C          60.0401   87.3752    8.2984 C.ar    1  UNL1        0.0592
      8 CL         59.2256   86.9316    7.1195 Cl      1  UNL1       -0.0822
      9 C          60.1790   88.8365    8.6068 C.ar    1  UNL1        0.0115
     10 C          60.9935   89.2801    9.7857 C.ar    1  UNL1        0.0036
     11 C          61.6691   88.2623   10.6562 C.ar    1  UNL1        0.0305
     12 C          63.6958   85.2089   13.2676 C.3     1  UNL1        0.0455
     13 C          64.5103   85.6525   14.4464 C.3     1  UNL1        0.0066
     14 C          64.6492   87.1138   14.7549 C.3     1  UNL1        0.0052
     15 C          63.9737   88.1316   13.8845 C.3     1  UNL1        0.0288
     16 N          62.6225   90.1672   12.1435 N.pl3   1  UNL1       -0.3292
     17 H          62.0221   90.5913   12.7984 H       1  UNL1        0.1471
     18 C          63.6763   90.9824   11.4542 C.3     1  UNL1        0.1144
     19 C          66.7441   93.2081   13.8799 C.ar    1  UNL1        0.1724
     20 C          66.7578   93.3043   12.3831 C.ar    1  UNL1        0.0398
     21 C          65.7351   92.5624   11.5745 C.ar    1  UNL1        0.0007
     22 C          64.6989   91.7243   12.2628 C.ar    1  UNL1        0.0006
     23 C          64.6852   91.6281   13.7597 C.ar    1  UNL1        0.0374
     24 C          65.7079   92.3700   14.5682 C.ar    1  UNL1        0.1721
     25 C          68.8533   93.1967   15.3968 C.3     1  UNL1        0.2526
     26 O          67.7668   93.9500   14.6885 O.3     1  UNL1       -0.4684
     27 O          65.6942   92.2738   16.0650 O.3     1  UNL1       -0.4684
     28 C          64.4071   92.0075   16.7878 C.3     1  UNL1        0.2526
@<TRIPOS>BOND
     1    25    26    1
     2    26    19    1
     3    19    20   ar
     4    20    21   ar
     5    21    22   ar
     6    22    18    1
     7    18    16    1
     8    16     1    1
     9     1     2   ar
    10     2     3   ar
    11     3     4   ar
    12     4     5   ar
    13     5     6   ar
    14     6     7   ar
    15     7     8    1
    16     7     9   ar
    17     9    10   ar
    18    10    11   ar
    19     3    12    1
    20    12    13    1
    21    13    14    1
    22    14    15    1
    23    22    23   ar
    24    23    24   ar
    25    24    27    1
    26    27    28    1
    27    24    19   ar
    28    11     1   ar
    29    15     2    1
    30    11     5   ar
    31    16    17    1
@<TRIPOS>MOLECULE
*****
 28 31 0 0 0
SMALL
GASTEIGER

@<TRIPOS>ATOM
      1 C          63.6149   84.9218   13.1371 C.ar    1  UNL1        0.0434
      2 C          63.4000   83.4436   12.9993 C.ar    1  UNL1        0.0045
      3 C          62.5455   82.9104   11.8877 C.ar    1  UNL1        0.0561
      4 N          61.9060   83.8554   10.9139 N.ar    1  UNL1       -0.2499
      5 C          62.1209   85.3334   11.0518 C.ar    1  UNL1        0.0829
      6 C          61.4814   86.2784   10.0780 C.ar    1  UNL1        0.0305
      7 C          61.6963   87.7565   10.2159 C.ar    1  UNL1        0.0592
      8 CL         61.0568   88.7013    9.2421 Cl      1  UNL1       -0.0822
      9 C          62.5508   88.2897   11.3275 C.ar    1  UNL1        0.0115
     10 C          63.1903   87.3448   12.3012 C.ar    1  UNL1        0.0036
     11 C          62.9754   85.8666   12.1634 C.ar    1  UNL1        0.0305
     12 C          62.3306   81.4323   11.7498 C.3     1  UNL1        0.0455
     13 C          62.9701   80.4874   12.7235 C.3     1  UNL1        0.0066
     14 C          63.8246   81.0207   13.8351 C.3     1  UNL1        0.0052
     15 C          64.0395   82.4987   13.9730 C.3     1  UNL1        0.0288
     16 N          64.4693   85.4550   14.2487 N.pl3   1  UNL1       -0.3292
     17 H          65.4504   85.4299   14.1708 H       1  UNL1        0.1471
     18 C          63.8289   86.0264   15.4789 C.3     1  UNL1        0.1144
     19 C          63.7225   90.4825   16.0971 C.ar    1  UNL1        0.1724
     20 C          63.0356   89.5733   17.0726 C.ar    1  UNL1        0.0398
     21 C          63.0711   88.0880   16.8666 C.ar    1  UNL1        0.0007
     22 C          63.7934   87.5118   15.6850 C.ar    1  UNL1        0.0006
     23 C          64.4803   88.4209   14.7094 C.ar    1  UNL1        0.0374
     24 C          64.4448   89.9063   14.9154 C.ar    1  UNL1        0.1721
     25 C          64.9238   92.6938   16.7425 C.3     1  UNL1        0.2526
     26 O          63.6870   91.9678   16.3031 O.3     1  UNL1       -0.4684
     27 O          65.1316   90.8154   13.9399 O.3     1  UNL1       -0.4684
     28 C          64.3245   91.5921   12.9422 C.3     1  UNL1        0.2526
@<TRIPOS>BOND
     1    25    26    1
     2    26    19    1
     3    19    20   ar
     4    20    21   ar
     5    21    22   ar
     6    22    18    1
     7    18    16    1
     8    16     1    1
     9     1     2   ar
    10     2     3   ar
    11     3     4   ar
    12     4     5   ar
    13     5     6   ar
    14     6     7   ar
    15     7     8    1
    16     7     9   ar
    17     9    10   ar
    18    10    11   ar
    19     3    12    1
    20    12    13    1
    21    13    14    1
    22    14    15    1
    23    22    23   ar
    24    23    24   ar
    25    24    27    1
    26    27    28    1
    27    24    19   ar
    28    11     1   ar
    29    15     2    1
    30    11     5   ar
    31    16    17    1
@<TRIPOS>MOLECULE
*****
 28 31 0 0 0
SMALL
GASTEIGER

@<TRIPOS>ATOM
      1 C          61.7318   87.8470   11.0488 C.ar    1  UNL1        0.0434
      2 C          62.6016   88.8345   11.7688 C.ar    1  UNL1        0.0045
      3 C          62.7161   90.2419   11.2629 C.ar    1  UNL1        0.0561
      4 N          61.9607   90.6619   10.0369 N.ar    1  UNL1       -0.2499
      5 C          61.0909   89.6745    9.3169 C.ar    1  UNL1        0.0829
      6 C          60.3355   90.0945    8.0909 C.ar    1  UNL1        0.0305
      7 C          59.4658   89.1071    7.3708 C.ar    1  UNL1        0.0592
      8 CL         58.7104   89.5272    6.1449 Cl      1  UNL1       -0.0822
      9 C          59.3513   87.6997    7.8768 C.ar    1  UNL1        0.0115
     10 C          60.1066   87.2796    9.1027 C.ar    1  UNL1        0.0036
     11 C          60.9765   88.2671    9.8228 C.ar    1  UNL1        0.0305
     12 C          63.5859   91.2293   11.9829 C.3     1  UNL1        0.0455
     13 C          64.3412   90.8093   13.2089 C.3     1  UNL1        0.0066
     14 C          64.2267   89.4018   13.7148 C.3     1  UNL1        0.0052
     15 C          63.3570   88.4144   12.9948 C.3     1  UNL1        0.0288
     16 N          61.6174   86.4396   11.5547 N.pl3   1  UNL1       -0.3292
     17 H          60.9311   86.2108   12.2225 H       1  UNL1        0.1471
     18 C          62.5486   85.3807   11.0432 C.3     1  UNL1        0.1144
     19 C          63.1755   81.6030   13.4067 C.ar    1  UNL1        0.1724
     20 C          63.1192   81.5499   11.9088 C.ar    1  UNL1        0.0398
     21 C          62.9102   82.8091   11.1209 C.ar    1  UNL1        0.0007
     22 C          62.7576   84.1214   11.8310 C.ar    1  UNL1        0.0006
     23 C          62.8139   84.1747   13.3291 C.ar    1  UNL1        0.0374
     24 C          63.0229   82.9155   14.1169 C.ar    1  UNL1        0.1721
     25 C          62.5615   79.1262   13.8947 C.3     1  UNL1        0.2526
     26 O          63.3845   80.3438   14.1946 O.3     1  UNL1       -0.4684
     27 O          63.0792   82.9686   15.6149 O.3     1  UNL1       -0.4684
     28 C          62.7567   84.2457   16.3327 C.3     1  UNL1        0.2526
@<TRIPOS>BOND
     1    25    26    1
     2    26    19    1
     3    19    20   ar
     4    20    21   ar
     5    21    22   ar
     6    22    18    1
     7    18    16    1
     8    16     1    1
     9     1     2   ar
    10     2     3   ar
    11     3     4   ar
    12     4     5   ar
    13     5     6   ar
    14     6     7   ar
    15     7     8    1
    16     7     9   ar
    17     9    10   ar
    18    10    11   ar
    19     3    12    1
    20    12    13    1
    21    13    14    1
    22    14    15    1
    23    22    23   ar
    24    23    24   ar
    25    24    27    1
    26    27    28    1
    27    24    19   ar
    28    11     1   ar
    29    15     2    1
    30    11     5   ar
    31    16    17    1
