@<TRIPOS>MOLECULE
*****
 38 41 0 0 0
SMALL
GASTEIGER

@<TRIPOS>ATOM
      1 C          62.2144   87.2150   10.9681 C.ar    1  UNL1        0.0703
      2 C          62.3443   88.6775   11.2752 C.ar    1  UNL1        0.0465
      3 C          61.7568   89.6948   10.3426 C.3     1  UNL1        0.0503
      4 N          63.0617   89.1226   12.5151 N.ar    1  UNL1       -0.2805
      5 C          63.6493   88.1053   13.4478 C.ar    1  UNL1        0.3338
      6 O          64.1376   88.2806   14.2840 O.2     1  UNL1       -0.2462
      7 N          63.5194   86.6428   13.1406 N.ar    1  UNL1       -0.2470
      8 C          62.8020   86.1977   11.9007 C.ar    1  UNL1        0.2654
      9 O          62.6721   84.7352   11.5935 O.2     1  UNL1       -0.2668
     10 C          61.5024   85.5137    7.4540 C.ar    1  UNL1        0.1660
     11 C          60.0623   85.8796    7.2486 C.ar    1  UNL1        0.0392
     12 C          59.3396   86.6906    8.2829 C.ar    1  UNL1        0.0033
     13 C          60.0569   87.1358    9.5227 C.ar    1  UNL1        0.0026
     14 C          61.4970   86.7699    9.7282 C.ar    1  UNL1        0.0362
     15 C          62.2198   85.9589    8.6939 C.ar    1  UNL1        0.1739
     16 F          63.6599   85.5930    8.8994 F       1  UNL1       -0.2010
     17 C          61.4553   84.0271    5.3238 C.3     1  UNL1        0.2526
     18 O          62.2251   84.7027    6.4197 O.3     1  UNL1       -0.4692
     19 C          63.1916   90.5851   12.8223 C.3     1  UNL1        0.1413
     20 C          64.4431   91.3219   12.4472 C.ar    1  UNL1        0.0554
     21 C          65.5488   91.4805   13.4484 C.ar    1  UNL1        0.1401
     22 F          65.4030   90.9021   14.8247 F       1  UNL1       -0.2044
     23 C          66.8003   92.2173   13.0732 C.ar    1  UNL1        0.0295
     24 C          66.9462   92.7957   11.6969 C.ar    1  UNL1        0.0046
     25 C          65.8405   92.6372   10.6957 C.ar    1  UNL1        0.0295
     26 C          64.5890   91.9003   11.0708 C.ar    1  UNL1        0.1401
     27 F          63.9335   91.8578   10.3380 F       1  UNL1       -0.2044
     28 C          64.1069   85.6255   14.0732 C.3     1  UNL1        0.1334
     29 C          63.2065   84.7052   14.8428 C.3     1  UNL1        0.0968
     30 N          62.5108   85.1962   16.0778 N.3     1  UNL1       -0.3172
     31 H          61.9440   84.4445   16.4703 H       1  UNL1        0.1192
     32 H          61.9104   85.9854   15.8388 H       1  UNL1        0.1192
     33 C          63.0018   83.2940   14.3776 C.ar    1  UNL1       -0.0063
     34 C          61.6943   82.6034   14.6296 C.ar    1  UNL1       -0.0029
     35 C          61.4895   81.1921   14.1644 C.ar    1  UNL1       -0.0003
     36 C          62.5923   80.4714   13.4472 C.ar    1  UNL1       -0.0000
     37 C          63.8999   81.1620   13.1951 C.ar    1  UNL1       -0.0003
     38 C          64.1046   82.5732   13.6604 C.ar    1  UNL1       -0.0029
@<TRIPOS>BOND
     1    17    18    1
     2    18    10    1
     3    10    11   ar
     4    11    12   ar
     5    12    13   ar
     6    13    14   ar
     7    14     1    1
     8     1     2   ar
     9     2     3    1
    10     2     4   ar
    11     4    19    1
    12    19    20    1
    13    20    21   ar
    14    21    22    1
    15    21    23   ar
    16    23    24   ar
    17    24    25   ar
    18    25    26   ar
    19    26    27    1
    20     4     5   ar
    21     5     6    2
    22     5     7   ar
    23     7    28    1
    24    28    29    1
    25    29    30    1
    26    29    33    1
    27    33    34   ar
    28    34    35   ar
    29    35    36   ar
    30    36    37   ar
    31    37    38   ar
    32     7     8   ar
    33     8     9    2
    34    14    15   ar
    35    15    16    1
    36    15    10   ar
    37     8     1   ar
    38    26    20   ar
    39    38    33   ar
    40    30    31    1
    41    30    32    1
@<TRIPOS>MOLECULE
*****
 38 41 0 0 0
SMALL
GASTEIGER

@<TRIPOS>ATOM
      1 C          63.8854   89.9378   13.5681 C.ar    1  UNL1        0.0703
      2 C          64.9103   91.0319   13.6192 C.ar    1  UNL1        0.0465
      3 C          65.7387   91.2264   14.8545 C.3     1  UNL1        0.0503
      4 N          65.1068   91.9314   12.4350 N.ar    1  UNL1       -0.2805
      5 C          64.2785   91.7368   11.1997 C.ar    1  UNL1        0.3338
      6 O          64.3209   92.2630   10.3692 O.2     1  UNL1       -0.2462
      7 N          63.2535   90.6427   11.1487 N.ar    1  UNL1       -0.2470
      8 C          63.0570   89.7433   12.3329 C.ar    1  UNL1        0.2654
      9 O          62.0321   88.6492   12.2818 O.2     1  UNL1       -0.2668
     10 C          63.7687   86.6694   15.8163 C.ar    1  UNL1        0.1660
     11 C          63.2957   87.2393   17.1206 C.ar    1  UNL1        0.0392
     12 C          63.0193   88.7087   17.2409 C.ar    1  UNL1        0.0033
     13 C          63.2158   89.6082   16.0568 C.ar    1  UNL1        0.0026
     14 C          63.6888   89.0383   14.7524 C.ar    1  UNL1        0.0362
     15 C          63.9652   87.5689   14.6321 C.ar    1  UNL1        0.1739
     16 F          64.4382   86.9990   13.3276 F       1  UNL1       -0.2010
     17 C          62.9557   84.2650   15.2616 C.3     1  UNL1        0.2526
     18 O          64.0451   85.2000   15.6960 O.3     1  UNL1       -0.4692
     19 C          66.1317   93.0254   12.4861 C.3     1  UNL1        0.1413
     20 C          66.7630   93.5214   11.2191 C.ar    1  UNL1        0.0554
     21 C          66.5473   94.9390   10.7786 C.ar    1  UNL1        0.1401
     22 F          65.7002   95.8605   11.6052 F       1  UNL1       -0.2044
     23 C          67.1785   95.4350    9.5116 C.ar    1  UNL1        0.0295
     24 C          68.0256   94.5135    8.6850 C.ar    1  UNL1        0.0046
     25 C          68.2414   93.0960    9.1254 C.ar    1  UNL1        0.0295
     26 C          67.6101   92.5999   10.3925 C.ar    1  UNL1        0.1401
     27 F          67.8189   91.6572   10.5826 F       1  UNL1       -0.2044
     28 C          62.4251   90.4481    9.9134 C.3     1  UNL1        0.1334
     29 C          61.0739   89.8041   10.0102 C.3     1  UNL1        0.0968
     30 N          60.0049   90.4277   10.8580 N.3     1  UNL1       -0.3172
     31 H          59.1580   89.8614   10.8080 H       1  UNL1        0.1192
     32 H          59.8058   91.3681   10.5168 H       1  UNL1        0.1192
     33 C          60.7916   88.5366    9.2594 C.ar    1  UNL1       -0.0063
     34 C          59.5508   88.4199    8.4247 C.ar    1  UNL1       -0.0029
     35 C          59.2685   87.1524    7.6739 C.ar    1  UNL1       -0.0003
     36 C          60.2270   86.0016    7.7577 C.ar    1  UNL1       -0.0000
     37 C          61.4679   86.1184    8.5925 C.ar    1  UNL1       -0.0003
     38 C          61.7502   87.3859    9.3433 C.ar    1  UNL1       -0.0029
@<TRIPOS>BOND
     1    17    18    1
     2    18    10    1
     3    10    11   ar
     4    11    12   ar
     5    12    13   ar
     6    13    14   ar
     7    14     1    1
     8     1     2   ar
     9     2     3    1
    10     2     4   ar
    11     4    19    1
    12    19    20    1
    13    20    21   ar
    14    21    22    1
    15    21    23   ar
    16    23    24   ar
    17    24    25   ar
    18    25    26   ar
    19    26    27    1
    20     4     5   ar
    21     5     6    2
    22     5     7   ar
    23     7    28    1
    24    28    29    1
    25    29    30    1
    26    29    33    1
    27    33    34   ar
    28    34    35   ar
    29    35    36   ar
    30    36    37   ar
    31    37    38   ar
    32     7     8   ar
    33     8     9    2
    34    14    15   ar
    35    15    16    1
    36    15    10   ar
    37     8     1   ar
    38    26    20   ar
    39    38    33   ar
    40    30    31    1
    41    30    32    1
@<TRIPOS>MOLECULE
*****
 38 41 0 0 0
SMALL
GASTEIGER

@<TRIPOS>ATOM
      1 C          62.5569   87.2258   11.2387 C.ar    1  UNL1        0.0703
      2 C          62.7352   88.6957   11.4788 C.ar    1  UNL1        0.0465
      3 C          62.3660   89.6806   10.4094 C.3     1  UNL1        0.0503
      4 N          63.2826   89.1807   12.7885 N.ar    1  UNL1       -0.2805
      5 C          63.6518   88.1959   13.8579 C.ar    1  UNL1        0.3338
      6 O          64.0171   88.3983   14.7490 O.2     1  UNL1       -0.2462
      7 N          63.4735   86.7259   13.6178 N.ar    1  UNL1       -0.2470
      8 C          62.9261   86.2410   12.3082 C.ar    1  UNL1        0.2654
      9 O          62.7478   84.7710   12.0680 O.2     1  UNL1       -0.2668
     10 C          60.0989   86.6907    8.1692 C.ar    1  UNL1        0.1660
     11 C          60.9145   85.7708    7.3099 C.ar    1  UNL1        0.0392
     12 C          62.2776   85.3359    7.7602 C.ar    1  UNL1        0.0033
     13 C          62.8251   85.8209    9.0698 C.ar    1  UNL1        0.0026
     14 C          62.0094   86.7408    9.9291 C.ar    1  UNL1        0.0362
     15 C          60.6463   87.1757    9.4788 C.ar    1  UNL1        0.1739
     16 F          59.8307   88.0957   10.3382 F       1  UNL1       -0.2010
     17 C          58.5500   88.4710    7.0823 C.3     1  UNL1        0.2526
     18 O          58.7357   87.1256    7.7189 O.3     1  UNL1       -0.4692
     19 C          63.4609   90.6506   13.0286 C.3     1  UNL1        0.1413
     20 C          64.8082   91.2830   12.8421 C.ar    1  UNL1        0.0554
     21 C          65.1264   92.0084   11.5683 C.ar    1  UNL1        0.1401
     22 F          64.0972   92.1014   10.4810 F       1  UNL1       -0.2044
     23 C          66.4737   92.6408   11.3818 C.ar    1  UNL1        0.0295
     24 C          67.5028   92.5478   12.4690 C.ar    1  UNL1        0.0046
     25 C          67.1847   91.8224   13.7428 C.ar    1  UNL1        0.0295
     26 C          65.8374   91.1900   13.9294 C.ar    1  UNL1        0.1401
     27 F          65.7400   90.7425   14.8004 F       1  UNL1       -0.2044
     28 C          63.8427   85.7411   14.6872 C.3     1  UNL1        0.1334
     29 C          64.5834   84.4870   14.3286 C.3     1  UNL1        0.0968
     30 N          66.0826   84.4901   14.2776 N.3     1  UNL1       -0.3172
     31 H          66.4159   83.5613   14.0195 H       1  UNL1        0.1192
     32 H          66.4535   84.7418   15.1939 H       1  UNL1        0.1192
     33 C          63.8251   83.2299   14.0209 C.ar    1  UNL1       -0.0063
     34 C          62.5538   82.9222   14.7551 C.ar    1  UNL1       -0.0029
     35 C          61.7955   81.6651   14.4475 C.ar    1  UNL1       -0.0003
     36 C          62.3084   80.7158   13.4056 C.ar    1  UNL1       -0.0000
     37 C          63.5798   81.0235   12.6714 C.ar    1  UNL1       -0.0003
     38 C          64.3381   82.2805   12.9790 C.ar    1  UNL1       -0.0029
@<TRIPOS>BOND
     1    17    18    1
     2    18    10    1
     3    10    11   ar
     4    11    12   ar
     5    12    13   ar
     6    13    14   ar
     7    14     1    1
     8     1     2   ar
     9     2     3    1
    10     2     4   ar
    11     4    19    1
    12    19    20    1
    13    20    21   ar
    14    21    22    1
    15    21    23   ar
    16    23    24   ar
    17    24    25   ar
    18    25    26   ar
    19    26    27    1
    20     4     5   ar
    21     5     6    2
    22     5     7   ar
    23     7    28    1
    24    28    29    1
    25    29    30    1
    26    29    33    1
    27    33    34   ar
    28    34    35   ar
    29    35    36   ar
    30    36    37   ar
    31    37    38   ar
    32     7     8   ar
    33     8     9    2
    34    14    15   ar
    35    15    16    1
    36    15    10   ar
    37     8     1   ar
    38    26    20   ar
    39    38    33   ar
    40    30    31    1
    41    30    32    1
@<TRIPOS>MOLECULE
*****
 38 41 0 0 0
SMALL
GASTEIGER

@<TRIPOS>ATOM
      1 C          62.2106   86.8967   11.0013 C.ar    1  UNL1        0.0703
      2 C          62.8284   85.7760   11.7837 C.ar    1  UNL1        0.0465
      3 C          62.6989   84.3623   11.2990 C.3     1  UNL1        0.0503
      4 N          63.5758   86.0688   13.0509 N.ar    1  UNL1       -0.2805
      5 C          63.7053   87.4824   13.5356 C.ar    1  UNL1        0.3338
      6 O          64.1694   87.7902   14.3470 O.2     1  UNL1       -0.2462
      7 N          63.0874   88.6032   12.7531 N.ar    1  UNL1       -0.2470
      8 C          62.3401   88.3103   11.4860 C.ar    1  UNL1        0.2654
      9 O          61.7223   89.4310   10.7034 O.2     1  UNL1       -0.2668
     10 C          61.4049   85.6071    7.3355 C.ar    1  UNL1        0.1660
     11 C          59.9687   86.0181    7.1997 C.ar    1  UNL1        0.0392
     12 C          59.2798   86.7219    8.3311 C.ar    1  UNL1        0.0033
     13 C          60.0271   87.0147    9.5983 C.ar    1  UNL1        0.0026
     14 C          61.4633   86.6038    9.7340 C.ar    1  UNL1        0.0362
     15 C          62.1522   85.9000    8.6026 C.ar    1  UNL1        0.1739
     16 F          63.5884   85.4890    8.7385 F       1  UNL1       -0.2010
     17 C          61.3783   83.8260    5.4442 C.3     1  UNL1        0.2526
     18 O          62.0938   84.9033    6.2041 O.3     1  UNL1       -0.4692
     19 C          64.1936   84.9481   13.8334 C.3     1  UNL1        0.1413
     20 C          63.5588   83.5891   13.8257 C.ar    1  UNL1        0.0554
     21 C          62.2708   83.3587   14.5593 C.ar    1  UNL1        0.1401
     22 F          61.6176   84.4875   15.3005 F       1  UNL1       -0.2044
     23 C          61.6360   81.9997   14.5516 C.ar    1  UNL1        0.0295
     24 C          62.2892   80.8710   13.8104 C.ar    1  UNL1        0.0046
     25 C          63.5772   81.1013   13.0769 C.ar    1  UNL1        0.0295
     26 C          64.2120   82.4604   13.0845 C.ar    1  UNL1        0.1401
     27 F          65.0516   82.4955   12.5723 F       1  UNL1       -0.2044
     28 C          63.2169   90.0168   13.2378 C.3     1  UNL1        0.1334
     29 C          64.1138   90.9781   12.5157 C.3     1  UNL1        0.0968
     30 N          63.9292   91.2168   11.0463 N.3     1  UNL1       -0.3172
     31 H          64.6196   91.8942   10.7225 H       1  UNL1        0.1192
     32 H          62.9912   91.5795   10.8759 H       1  UNL1        0.1192
     33 C          65.1953   91.7007   13.2628 C.ar    1  UNL1       -0.0063
     34 C          65.7642   91.1083   14.5179 C.ar    1  UNL1       -0.0029
     35 C          66.8457   91.8308   15.2651 C.ar    1  UNL1       -0.0003
     36 C          67.3583   93.1458   14.7572 C.ar    1  UNL1       -0.0000
     37 C          66.7893   93.7383   13.5020 C.ar    1  UNL1       -0.0003
     38 C          65.7078   93.0157   12.7548 C.ar    1  UNL1       -0.0029
@<TRIPOS>BOND
     1    17    18    1
     2    18    10    1
     3    10    11   ar
     4    11    12   ar
     5    12    13   ar
     6    13    14   ar
     7    14     1    1
     8     1     2   ar
     9     2     3    1
    10     2     4   ar
    11     4    19    1
    12    19    20    1
    13    20    21   ar
    14    21    22    1
    15    21    23   ar
    16    23    24   ar
    17    24    25   ar
    18    25    26   ar
    19    26    27    1
    20     4     5   ar
    21     5     6    2
    22     5     7   ar
    23     7    28    1
    24    28    29    1
    25    29    30    1
    26    29    33    1
    27    33    34   ar
    28    34    35   ar
    29    35    36   ar
    30    36    37   ar
    31    37    38   ar
    32     7     8   ar
    33     8     9    2
    34    14    15   ar
    35    15    16    1
    36    15    10   ar
    37     8     1   ar
    38    26    20   ar
    39    38    33   ar
    40    30    31    1
    41    30    32    1
@<TRIPOS>MOLECULE
*****
 38 41 0 0 0
SMALL
GASTEIGER

@<TRIPOS>ATOM
      1 C          63.9498   89.5039   13.2353 C.ar    1  UNL1        0.0703
      2 C          64.8753   90.6762   13.3733 C.ar    1  UNL1        0.0465
      3 C          65.7764   90.7839   14.5677 C.3     1  UNL1        0.0503
      4 N          64.8998   91.7409   12.3170 N.ar    1  UNL1       -0.2805
      5 C          63.9987   91.6333   11.1226 C.ar    1  UNL1        0.3338
      6 O          63.9303   92.2674   10.3732 O.2     1  UNL1       -0.2462
      7 N          63.0732   90.4609   10.9846 N.ar    1  UNL1       -0.2470
      8 C          63.0488   89.3962   12.0410 C.ar    1  UNL1        0.2654
      9 O          62.1233   88.2238   11.9030 O.2     1  UNL1       -0.2668
     10 C          63.3850   87.6914   16.7204 C.ar    1  UNL1        0.1660
     11 C          63.8765   86.3099   16.4044 C.ar    1  UNL1        0.0392
     12 C          64.3924   85.9931   15.0320 C.ar    1  UNL1        0.0033
     13 C          64.4169   87.0577   13.9757 C.ar    1  UNL1        0.0026
     14 C          63.9254   88.4392   14.2917 C.ar    1  UNL1        0.0362
     15 C          63.4094   88.7560   15.6641 C.ar    1  UNL1        0.1739
     16 F          62.9179   90.1376   15.9801 F       1  UNL1       -0.2010
     17 C          62.6334   86.9030   19.0791 C.3     1  UNL1        0.2526
     18 O          62.8690   88.0082   18.0928 O.3     1  UNL1       -0.4692
     19 C          65.8253   92.9133   12.4550 C.3     1  UNL1        0.1413
     20 C          66.4788   93.5001   11.2390 C.ar    1  UNL1        0.0554
     21 C          67.5656   92.7445   10.5333 C.ar    1  UNL1        0.1401
     22 F          67.9989   91.4022   11.0436 F       1  UNL1       -0.2044
     23 C          68.2191   93.3313    9.3174 C.ar    1  UNL1        0.0295
     24 C          67.7858   94.6737    8.8071 C.ar    1  UNL1        0.0046
     25 C          66.6991   95.4292    9.5128 C.ar    1  UNL1        0.0295
     26 C          66.0455   94.8424   10.7288 C.ar    1  UNL1        0.1401
     27 F          65.3480   95.4235   11.1086 F       1  UNL1       -0.2044
     28 C          62.1721   90.3532    9.7903 C.3     1  UNL1        0.1334
     29 C          60.8586   89.6379    9.9038 C.3     1  UNL1        0.0968
     30 N          59.7820   90.1834   10.7947 N.3     1  UNL1       -0.3172
     31 H          58.9641   89.5756   10.7509 H       1  UNL1        0.1192
     32 H          59.5262   91.1207   10.4840 H       1  UNL1        0.1192
     33 C          60.6215   88.3771    9.1266 C.ar    1  UNL1       -0.0063
     34 C          61.6532   87.2883    9.1307 C.ar    1  UNL1       -0.0029
     35 C          61.4161   86.0274    8.3535 C.ar    1  UNL1       -0.0003
     36 C          60.1474   85.8554    7.5720 C.ar    1  UNL1       -0.0000
     37 C          59.1156   86.9443    7.5679 C.ar    1  UNL1       -0.0003
     38 C          59.3527   88.2051    8.3451 C.ar    1  UNL1       -0.0029
@<TRIPOS>BOND
     1    17    18    1
     2    18    10    1
     3    10    11   ar
     4    11    12   ar
     5    12    13   ar
     6    13    14   ar
     7    14     1    1
     8     1     2   ar
     9     2     3    1
    10     2     4   ar
    11     4    19    1
    12    19    20    1
    13    20    21   ar
    14    21    22    1
    15    21    23   ar
    16    23    24   ar
    17    24    25   ar
    18    25    26   ar
    19    26    27    1
    20     4     5   ar
    21     5     6    2
    22     5     7   ar
    23     7    28    1
    24    28    29    1
    25    29    30    1
    26    29    33    1
    27    33    34   ar
    28    34    35   ar
    29    35    36   ar
    30    36    37   ar
    31    37    38   ar
    32     7     8   ar
    33     8     9    2
    34    14    15   ar
    35    15    16    1
    36    15    10   ar
    37     8     1   ar
    38    26    20   ar
    39    38    33   ar
    40    30    31    1
    41    30    32    1
@<TRIPOS>MOLECULE
*****
 38 41 0 0 0
SMALL
GASTEIGER

@<TRIPOS>ATOM
      1 C          62.8502   85.9408   11.2362 C.ar    1  UNL1        0.0703
      2 C          63.1975   84.6994   12.0031 C.ar    1  UNL1        0.0465
      3 C          62.9526   83.3497   11.3962 C.3     1  UNL1        0.0503
      4 N          63.7898   84.8076   13.3770 N.ar    1  UNL1       -0.2805
      5 C          64.0347   86.1573   13.9839 C.ar    1  UNL1        0.3338
      6 O          64.4156   86.3475   14.8712 O.2     1  UNL1       -0.2462
      7 N          63.6873   87.3988   13.2169 N.ar    1  UNL1       -0.2470
      8 C          63.0951   87.2905   11.8431 C.ar    1  UNL1        0.2654
      9 O          62.7477   88.5319   11.0760 O.2     1  UNL1       -0.2668
     10 C          60.3082   86.2983    8.2095 C.ar    1  UNL1        0.1660
     11 C          61.0734   85.6160    7.1146 C.ar    1  UNL1        0.0392
     12 C          62.4309   85.0420    7.3935 C.ar    1  UNL1        0.0033
     13 C          63.0232   85.1503    8.7673 C.ar    1  UNL1        0.0026
     14 C          62.2579   85.8325    9.8622 C.ar    1  UNL1        0.0362
     15 C          60.9005   86.4065    9.5834 C.ar    1  UNL1        0.1739
     16 F          60.1352   87.0887   10.6784 F       1  UNL1       -0.2010
     17 C          58.8223   88.2646    7.3877 C.3     1  UNL1        0.2526
     18 O          58.9507   86.8723    7.9306 O.3     1  UNL1       -0.4692
     19 C          64.1371   83.5662   14.1440 C.3     1  UNL1        0.1413
     20 C          63.2675   82.3490   14.0343 C.ar    1  UNL1        0.0554
     21 C          61.8336   82.4098   14.4706 C.ar    1  UNL1        0.1401
     22 F          61.2693   83.6879   15.0165 F       1  UNL1       -0.2044
     23 C          60.9640   81.1926   14.3609 C.ar    1  UNL1        0.0295
     24 C          61.5282   79.9145   13.8149 C.ar    1  UNL1        0.0046
     25 C          62.9620   79.8536   13.3786 C.ar    1  UNL1        0.0295
     26 C          63.8317   81.0709   13.4883 C.ar    1  UNL1        0.1401
     27 F          64.7513   80.9160   13.1739 F       1  UNL1       -0.2044
     28 C          63.9322   88.7485   13.8238 C.3     1  UNL1        0.1334
     29 C          63.3173   89.9703   13.2083 C.3     1  UNL1        0.0968
     30 N          61.8249   90.1031   13.1350 N.3     1  UNL1       -0.3172
     31 H          61.5838   90.9886   12.6899 H       1  UNL1        0.1192
     32 H          61.4347   90.0788   14.0772 H       1  UNL1        0.1192
     33 C          64.1946   91.0595   12.6661 C.ar    1  UNL1       -0.0063
     34 C          65.2322   91.6937   13.5442 C.ar    1  UNL1       -0.0029
     35 C          66.1096   92.7829   13.0020 C.ar    1  UNL1       -0.0003
     36 C          65.9493   93.2378   11.5816 C.ar    1  UNL1       -0.0000
     37 C          64.9117   92.6035   10.7035 C.ar    1  UNL1       -0.0003
     38 C          64.0343   91.5144   11.2457 C.ar    1  UNL1       -0.0029
@<TRIPOS>BOND
     1    17    18    1
     2    18    10    1
     3    10    11   ar
     4    11    12   ar
     5    12    13   ar
     6    13    14   ar
     7    14     1    1
     8     1     2   ar
     9     2     3    1
    10     2     4   ar
    11     4    19    1
    12    19    20    1
    13    20    21   ar
    14    21    22    1
    15    21    23   ar
    16    23    24   ar
    17    24    25   ar
    18    25    26   ar
    19    26    27    1
    20     4     5   ar
    21     5     6    2
    22     5     7   ar
    23     7    28    1
    24    28    29    1
    25    29    30    1
    26    29    33    1
    27    33    34   ar
    28    34    35   ar
    29    35    36   ar
    30    36    37   ar
    31    37    38   ar
    32     7     8   ar
    33     8     9    2
    34    14    15   ar
    35    15    16    1
    36    15    10   ar
    37     8     1   ar
    38    26    20   ar
    39    38    33   ar
    40    30    31    1
    41    30    32    1
@<TRIPOS>MOLECULE
*****
 38 41 0 0 0
SMALL
GASTEIGER

@<TRIPOS>ATOM
      1 C          62.7023   86.2370   11.6399 C.ar    1  UNL1        0.0703
      2 C          63.0426   84.9218   12.2758 C.ar    1  UNL1        0.0465
      3 C          62.5980   83.6410   11.6340 C.3     1  UNL1        0.0503
      4 N          63.8277   84.8873   13.5536 N.ar    1  UNL1       -0.2805
      5 C          64.2723   86.1681   14.1954 C.ar    1  UNL1        0.3338
      6 O          64.7883   86.2656   15.0277 O.2     1  UNL1       -0.2462
      7 N          63.9319   87.4834   13.5594 N.ar    1  UNL1       -0.2470
      8 C          63.1469   87.5178   12.2818 C.ar    1  UNL1        0.2654
      9 O          62.8065   88.8330   11.6458 O.2     1  UNL1       -0.2668
     10 C          61.6859   85.6647    7.8466 C.ar    1  UNL1        0.1660
     11 C          60.3473   86.3403    7.8068 C.ar    1  UNL1        0.0392
     12 C          59.7936   86.9815    9.0447 C.ar    1  UNL1        0.0033
     13 C          60.5786   86.9470   10.3224 C.ar    1  UNL1        0.0026
     14 C          61.9172   86.2715   10.3622 C.ar    1  UNL1        0.0362
     15 C          62.4709   85.6303    9.1243 C.ar    1  UNL1        0.1739
     16 F          63.8096   84.9547    9.1641 F       1  UNL1       -0.2010
     17 C          61.3927   84.0760    5.8119 C.3     1  UNL1        0.2526
     18 O          62.2396   85.0236    6.6087 O.3     1  UNL1       -0.4692
     19 C          64.1681   83.5722   14.1895 C.3     1  UNL1        0.1413
     20 C          63.3003   82.3736   13.9439 C.ar    1  UNL1        0.0554
     21 C          63.7974   81.2520   13.0807 C.ar    1  UNL1        0.1401
     22 F          65.1621   81.3291   12.4631 F       1  UNL1       -0.2044
     23 C          62.9296   80.0534   12.8352 C.ar    1  UNL1        0.0295
     24 C          61.5649   79.9763   13.4528 C.ar    1  UNL1        0.0046
     25 C          61.0678   81.0978   14.3160 C.ar    1  UNL1        0.0295
     26 C          61.9356   82.2965   14.5616 C.ar    1  UNL1        0.1401
     27 F          61.5088   82.9679   15.1408 F       1  UNL1       -0.2044
     28 C          64.3766   88.7641   14.2012 C.3     1  UNL1        0.1334
     29 C          63.7247   90.0600   13.8196 C.3     1  UNL1        0.0968
     30 N          62.2461   90.2373   13.9992 N.3     1  UNL1       -0.3172
     31 H          61.9757   91.1713   13.6909 H       1  UNL1        0.1192
     32 H          62.0069   90.1218   14.9840 H       1  UNL1        0.1192
     33 C          64.5515   91.1787   13.2584 C.ar    1  UNL1       -0.0063
     34 C          65.5886   91.8462   14.1121 C.ar    1  UNL1       -0.0029
     35 C          66.4154   92.9649   13.5509 C.ar    1  UNL1       -0.0003
     36 C          66.2051   93.4161   12.1360 C.ar    1  UNL1       -0.0000
     37 C          65.1679   92.7487   11.2822 C.ar    1  UNL1       -0.0003
     38 C          64.3411   91.6300   11.8434 C.ar    1  UNL1       -0.0029
@<TRIPOS>BOND
     1    17    18    1
     2    18    10    1
     3    10    11   ar
     4    11    12   ar
     5    12    13   ar
     6    13    14   ar
     7    14     1    1
     8     1     2   ar
     9     2     3    1
    10     2     4   ar
    11     4    19    1
    12    19    20    1
    13    20    21   ar
    14    21    22    1
    15    21    23   ar
    16    23    24   ar
    17    24    25   ar
    18    25    26   ar
    19    26    27    1
    20     4     5   ar
    21     5     6    2
    22     5     7   ar
    23     7    28    1
    24    28    29    1
    25    29    30    1
    26    29    33    1
    27    33    34   ar
    28    34    35   ar
    29    35    36   ar
    30    36    37   ar
    31    37    38   ar
    32     7     8   ar
    33     8     9    2
    34    14    15   ar
    35    15    16    1
    36    15    10   ar
    37     8     1   ar
    38    26    20   ar
    39    38    33   ar
    40    30    31    1
    41    30    32    1
@<TRIPOS>MOLECULE
*****
 38 41 0 0 0
SMALL
GASTEIGER

@<TRIPOS>ATOM
      1 C          63.3060   88.1601   13.6452 C.ar    1  UNL1        0.0703
      2 C          63.9930   86.8527   13.9070 C.ar    1  UNL1        0.0465
      3 C          65.0952   86.7745   14.9214 C.3     1  UNL1        0.0503
      4 N          63.5779   85.6234   13.1543 N.ar    1  UNL1       -0.2805
      5 C          62.4757   85.7015   12.1399 C.ar    1  UNL1        0.3338
      6 O          62.1227   84.9651   11.5908 O.2     1  UNL1       -0.2462
      7 N          61.7887   87.0091   11.8781 N.ar    1  UNL1       -0.2470
      8 C          62.2038   88.2383   12.6307 C.ar    1  UNL1        0.2654
      9 O          61.5168   89.5459   12.3689 O.2     1  UNL1       -0.2668
     10 C          64.8563   91.7261   14.4394 C.ar    1  UNL1        0.1660
     11 C          64.5515   91.8481   15.9030 C.ar    1  UNL1        0.0392
     12 C          63.8315   90.7408   16.6140 C.ar    1  UNL1        0.0033
     13 C          63.4164   89.5115   15.8614 C.ar    1  UNL1        0.0026
     14 C          63.7212   89.3895   14.3978 C.ar    1  UNL1        0.0362
     15 C          64.4411   90.4968   13.6868 C.ar    1  UNL1        0.1739
     16 F          64.7459   90.3748   12.2231 F       1  UNL1       -0.2010
     17 C          66.7223   93.5333   14.3966 C.3     1  UNL1        0.2526
     18 O          65.5762   92.8334   13.7284 O.3     1  UNL1       -0.4692
     19 C          64.2649   84.3159   13.4161 C.3     1  UNL1        0.1413
     20 C          63.4793   83.0383   13.3937 C.ar    1  UNL1        0.0554
     21 C          63.7291   82.0231   12.3179 C.ar    1  UNL1        0.1401
     22 F          64.7644   82.2856   11.2647 F       1  UNL1       -0.2044
     23 C          62.9436   80.7454   12.2955 C.ar    1  UNL1        0.0295
     24 C          61.9083   80.4829   13.3487 C.ar    1  UNL1        0.0046
     25 C          61.6585   81.4980   14.4244 C.ar    1  UNL1        0.0295
     26 C          62.4441   82.7758   14.4469 C.ar    1  UNL1        0.1401
     27 F          62.1973   83.3657   15.1950 F       1  UNL1       -0.2044
     28 C          60.6865   87.0872   10.8636 C.3     1  UNL1        0.1334
     29 C          60.9938   87.4902    9.4519 C.3     1  UNL1        0.0968
     30 N          60.9561   88.9377    9.0599 N.3     1  UNL1       -0.3172
     31 H          61.1889   89.0284    8.0710 H       1  UNL1        0.1192
     32 H          61.6327   89.4587    9.6177 H       1  UNL1        0.1192
     33 C          61.3388   86.4459    8.4319 C.ar    1  UNL1       -0.0063
     34 C          60.3002   85.9791    7.4555 C.ar    1  UNL1       -0.0029
     35 C          60.6451   84.9347    6.4356 C.ar    1  UNL1       -0.0003
     36 C          62.0287   84.3571    6.3921 C.ar    1  UNL1       -0.0000
     37 C          63.0674   84.8238    7.3685 C.ar    1  UNL1       -0.0003
     38 C          62.7224   85.8682    8.3885 C.ar    1  UNL1       -0.0029
@<TRIPOS>BOND
     1    17    18    1
     2    18    10    1
     3    10    11   ar
     4    11    12   ar
     5    12    13   ar
     6    13    14   ar
     7    14     1    1
     8     1     2   ar
     9     2     3    1
    10     2     4   ar
    11     4    19    1
    12    19    20    1
    13    20    21   ar
    14    21    22    1
    15    21    23   ar
    16    23    24   ar
    17    24    25   ar
    18    25    26   ar
    19    26    27    1
    20     4     5   ar
    21     5     6    2
    22     5     7   ar
    23     7    28    1
    24    28    29    1
    25    29    30    1
    26    29    33    1
    27    33    34   ar
    28    34    35   ar
    29    35    36   ar
    30    36    37   ar
    31    37    38   ar
    32     7     8   ar
    33     8     9    2
    34    14    15   ar
    35    15    16    1
    36    15    10   ar
    37     8     1   ar
    38    26    20   ar
    39    38    33   ar
    40    30    31    1
    41    30    32    1
@<TRIPOS>MOLECULE
*****
 38 41 0 0 0
SMALL
GASTEIGER

@<TRIPOS>ATOM
      1 C          63.9434   89.3517   13.8625 C.ar    1  UNL1        0.0703
      2 C          63.4981   89.6643   12.4647 C.ar    1  UNL1        0.0465
      3 C          63.5713   91.0718   11.9513 C.3     1  UNL1        0.0503
      4 N          62.9796   88.5693   11.5802 N.ar    1  UNL1       -0.2805
      5 C          62.9064   87.1618   12.0936 C.ar    1  UNL1        0.3338
      6 O          62.5860   86.3694   11.6060 O.2     1  UNL1       -0.2462
      7 N          63.3517   86.8493   13.4915 N.ar    1  UNL1       -0.2470
      8 C          63.8702   87.9442   14.3760 C.ar    1  UNL1        0.2654
      9 O          64.3155   87.6317   15.7739 O.2     1  UNL1       -0.2668
     10 C          66.2224   92.2904   15.2483 C.ar    1  UNL1        0.1660
     11 C          65.4989   92.6365   16.5159 C.ar    1  UNL1        0.0392
     12 C          64.2570   91.8877   16.8990 C.ar    1  UNL1        0.0033
     13 C          63.7384   90.7928   16.0146 C.ar    1  UNL1        0.0026
     14 C          64.4619   90.4467   14.7470 C.ar    1  UNL1        0.0362
     15 C          65.7039   91.1955   14.3639 C.ar    1  UNL1        0.1739
     16 F          66.4274   90.8493   13.0963 F       1  UNL1       -0.2010
     17 C          68.6805   92.9725   15.7407 C.3     1  UNL1        0.2526
     18 O          67.4644   93.0392   14.8652 O.3     1  UNL1       -0.4692
     19 C          62.5344   88.8819   10.1824 C.3     1  UNL1        0.1413
     20 C          61.6094   87.9455    9.4629 C.ar    1  UNL1        0.0554
     21 C          60.1305   88.1962    9.4742 C.ar    1  UNL1        0.1401
     22 F          59.5766   89.3832   10.2051 F       1  UNL1       -0.2044
     23 C          59.2056   87.2599    8.7548 C.ar    1  UNL1        0.0295
     24 C          59.7595   86.0728    8.0239 C.ar    1  UNL1        0.0046
     25 C          61.2383   85.8221    8.0125 C.ar    1  UNL1        0.0295
     26 C          62.1633   86.7585    8.7320 C.ar    1  UNL1        0.1401
     27 F          63.1092   86.4972    8.6576 F       1  UNL1       -0.2044
     28 C          63.2785   85.4418   14.0050 C.3     1  UNL1        0.1334
     29 C          64.3217   84.4417   13.6031 C.3     1  UNL1        0.0968
     30 N          65.7026   84.5240   14.1833 N.3     1  UNL1       -0.3172
     31 H          66.2767   83.7718   13.8026 H       1  UNL1        0.1192
     32 H          65.6511   84.4323   15.1979 H       1  UNL1        0.1192
     33 C          63.9841   83.3592   12.6212 C.ar    1  UNL1       -0.0063
     34 C          64.4526   83.4630   11.2000 C.ar    1  UNL1       -0.0029
     35 C          64.1150   82.3805   10.2181 C.ar    1  UNL1       -0.0003
     36 C          63.3089   81.1943   10.6572 C.ar    1  UNL1       -0.0000
     37 C          62.8404   81.0904   12.0784 C.ar    1  UNL1       -0.0003
     38 C          63.1779   82.1729   13.0604 C.ar    1  UNL1       -0.0029
@<TRIPOS>BOND
     1    17    18    1
     2    18    10    1
     3    10    11   ar
     4    11    12   ar
     5    12    13   ar
     6    13    14   ar
     7    14     1    1
     8     1     2   ar
     9     2     3    1
    10     2     4   ar
    11     4    19    1
    12    19    20    1
    13    20    21   ar
    14    21    22    1
    15    21    23   ar
    16    23    24   ar
    17    24    25   ar
    18    25    26   ar
    19    26    27    1
    20     4     5   ar
    21     5     6    2
    22     5     7   ar
    23     7    28    1
    24    28    29    1
    25    29    30    1
    26    29    33    1
    27    33    34   ar
    28    34    35   ar
    29    35    36   ar
    30    36    37   ar
    31    37    38   ar
    32     7     8   ar
    33     8     9    2
    34    14    15   ar
    35    15    16    1
    36    15    10   ar
    37     8     1   ar
    38    26    20   ar
    39    38    33   ar
    40    30    31    1
    41    30    32    1
