@<TRIPOS>MOLECULE
*****
 34 38 0 0 0
SMALL
GASTEIGER

@<TRIPOS>ATOM
      1 C          60.2163   85.9949    8.0496 C.3     1  UNL1        0.0339
      2 C          60.7511   86.8638    9.1492 C.3     1  UNL1        0.1351
      3 C          61.6193   86.2705   10.2188 C.3     1  UNL1        0.1231
      4 N          62.1541   87.1393   11.3184 N.am    1  UNL1       -0.2724
      5 C          63.0224   86.5460   12.3881 C.2     1  UNL1        0.2507
      6 O          63.5571   87.4148   13.4877 O.2     1  UNL1       -0.2698
      7 C          61.8206   88.6014   11.3484 C.3     1  UNL1        0.1097
      8 C          60.9523   89.1947   10.2788 C.3     1  UNL1        0.1621
      9 O          60.4176   88.3259    9.1792 O.3     1  UNL1       -0.3527
     10 C          63.3559   85.0839   12.3581 C.ar    1  UNL1        0.0738
     11 C          63.6469   84.4076   11.0511 C.ar    1  UNL1        0.0175
     12 C          63.9804   82.9454   11.0212 C.ar    1  UNL1        0.0579
     13 CL         64.2714   82.2692    9.7142 Cl      1  UNL1       -0.0822
     14 C          64.0229   82.1596   12.2981 C.ar    1  UNL1        0.0130
     15 C          63.7320   82.8358   13.6050 C.ar    1  UNL1        0.0219
     16 C          63.3985   84.2979   13.6350 C.ar    1  UNL1        0.1073
     17 N          63.1075   84.9741   14.9419 N.ar    1  UNL1       -0.1477
     18 N          64.0890   85.7465   15.7728 N.ar    1  UNL1       -0.1447
     19 C          63.3720   86.2464   16.9918 C.ar    1  UNL1        0.1446
     20 C          61.9474   85.7831   16.9144 C.ar    1  UNL1        0.1446
     21 N          61.7840   84.9968   15.6475 N.ar    1  UNL1       -0.1447
     22 C          62.3553   89.4703   12.4481 C.3     1  UNL1        0.0510
     23 C          63.4309   90.4739   12.1551 C.ar    1  UNL1        0.0086
     24 C          64.4303   90.8331   13.2145 C.ar    1  UNL1        0.0189
     25 C          65.5058   91.8367   12.9216 C.ar    1  UNL1        0.1027
     26 C          65.5821   92.4812   11.5693 C.ar    1  UNL1        0.0232
     27 C          64.5828   92.1220   10.5099 C.ar    1  UNL1        0.0309
     28 C          63.5072   91.1184   10.8028 C.ar    1  UNL1        0.1363
     29 F          62.5079   90.7592    9.7434 F       1  UNL1       -0.2045
     30 N          66.5052   92.1959   13.9810 N.ar    1  UNL1       -0.1478
     31 N          66.1988   92.4839   15.4209 N.ar    1  UNL1       -0.1447
     32 C          67.4906   92.7961   16.1162 C.ar    1  UNL1        0.1446
     33 C          68.5956   92.7011   15.1062 C.ar    1  UNL1        0.1446
     34 N          67.9865   92.3301   13.7864 N.ar    1  UNL1       -0.1447
@<TRIPOS>BOND
     1     2     1    1
     2     2     3    1
     3     3     4    1
     4     4     5   am
     5     5     6    2
     6     5    10    1
     7    10    11   ar
     8    11    12   ar
     9    12    13    1
    10    12    14   ar
    11    14    15   ar
    12    15    16   ar
    13    16    17    1
    14    17    18   ar
    15    18    19   ar
    16    19    20   ar
    17    20    21   ar
    18     4     7    1
    19     7    22    1
    20    22    23    1
    21    23    24   ar
    22    24    25   ar
    23    25    30    1
    24    30    31   ar
    25    31    32   ar
    26    32    33   ar
    27    33    34   ar
    28    25    26   ar
    29    26    27   ar
    30    27    28   ar
    31    28    29    1
    32     7     8    1
    33     8     9    1
    34     9     2    1
    35    16    10   ar
    36    21    17   ar
    37    28    23   ar
    38    34    30   ar
@<TRIPOS>MOLECULE
*****
 34 38 0 0 0
SMALL
GASTEIGER

@<TRIPOS>ATOM
      1 C          59.8145   89.2477    8.0576 C.3     1  UNL1        0.0339
      2 C          60.4739   89.3853    9.3978 C.3     1  UNL1        0.1351
      3 C          61.2954   88.2577    9.9489 C.3     1  UNL1        0.1231
      4 N          61.9548   88.3954   11.2891 N.am    1  UNL1       -0.2724
      5 C          62.7763   87.2677   11.8401 C.2     1  UNL1        0.2507
      6 O          63.4357   87.4054   13.1803 O.2     1  UNL1       -0.2698
      7 C          61.7928   89.6607   12.0782 C.3     1  UNL1        0.1097
      8 C          60.9713   90.7883   11.5272 C.3     1  UNL1        0.1621
      9 O          60.3119   90.6506   10.1870 O.3     1  UNL1       -0.3527
     10 C          62.9383   86.0025   11.0510 C.ar    1  UNL1        0.0738
     11 C          62.8487   86.0355    9.5540 C.ar    1  UNL1        0.0175
     12 C          63.0107   84.7702    8.7649 C.ar    1  UNL1        0.0579
     13 CL         62.9212   84.8032    7.2679 Cl      1  UNL1       -0.0822
     14 C          63.2623   83.4718    9.4727 C.ar    1  UNL1        0.0130
     15 C          63.3519   83.4388   10.9696 C.ar    1  UNL1        0.0219
     16 C          63.1899   84.7041   11.7588 C.ar    1  UNL1        0.1073
     17 N          63.2794   84.6710   13.2557 N.ar    1  UNL1       -0.1477
     18 N          62.1206   84.6504   14.2081 N.ar    1  UNL1       -0.1447
     19 C          62.6686   84.6194   15.6041 C.ar    1  UNL1        0.1446
     20 C          64.1659   84.6208   15.5146 C.ar    1  UNL1        0.1446
     21 N          64.5434   84.6527   14.0632 N.ar    1  UNL1       -0.1447
     22 C          62.4522   89.7983   13.4185 C.3     1  UNL1        0.0510
     23 C          63.6703   90.6605   13.5700 C.ar    1  UNL1        0.0086
     24 C          64.2611   91.3415   12.3710 C.ar    1  UNL1        0.0189
     25 C          65.4791   92.2036   12.5226 C.ar    1  UNL1        0.1027
     26 C          66.1065   92.3847   13.8729 C.ar    1  UNL1        0.0232
     27 C          65.5159   91.7038   15.0718 C.ar    1  UNL1        0.0309
     28 C          64.2977   90.8416   14.9203 C.ar    1  UNL1        0.1363
     29 F          63.7071   90.1606   16.1192 F       1  UNL1       -0.2045
     30 N          66.0699   92.8846   11.3236 N.ar    1  UNL1       -0.1478
     31 N          67.1377   92.3270   10.4299 N.ar    1  UNL1       -0.1447
     32 C          67.4242   93.3406    9.3619 C.ar    1  UNL1        0.1446
     33 C          66.5334   94.5247    9.5956 C.ar    1  UNL1        0.1446
     34 N          65.6964   94.2429   10.8081 N.ar    1  UNL1       -0.1447
@<TRIPOS>BOND
     1     2     1    1
     2     2     3    1
     3     3     4    1
     4     4     5   am
     5     5     6    2
     6     5    10    1
     7    10    11   ar
     8    11    12   ar
     9    12    13    1
    10    12    14   ar
    11    14    15   ar
    12    15    16   ar
    13    16    17    1
    14    17    18   ar
    15    18    19   ar
    16    19    20   ar
    17    20    21   ar
    18     4     7    1
    19     7    22    1
    20    22    23    1
    21    23    24   ar
    22    24    25   ar
    23    25    30    1
    24    30    31   ar
    25    31    32   ar
    26    32    33   ar
    27    33    34   ar
    28    25    26   ar
    29    26    27   ar
    30    27    28   ar
    31    28    29    1
    32     7     8    1
    33     8     9    1
    34     9     2    1
    35    16    10   ar
    36    21    17   ar
    37    28    23   ar
    38    34    30   ar
@<TRIPOS>MOLECULE
*****
 34 38 0 0 0
SMALL
GASTEIGER

@<TRIPOS>ATOM
      1 C          60.9525   88.0762    9.1458 C.3     1  UNL1        0.0339
      2 C          61.7779   88.5122   10.3199 C.3     1  UNL1        0.1351
      3 C          62.3434   87.4895   11.2602 C.3     1  UNL1        0.1231
      4 N          63.1689   87.9255   12.4344 N.am    1  UNL1       -0.2724
      5 C          63.7344   86.9028   13.3747 C.2     1  UNL1        0.2507
      6 O          64.5598   87.3388   14.5488 O.2     1  UNL1       -0.2698
      7 C          63.4287   89.3842   12.6682 C.3     1  UNL1        0.1097
      8 C          62.8632   90.4069   11.7278 C.3     1  UNL1        0.1621
      9 O          62.0378   89.9709   10.5537 O.3     1  UNL1       -0.3527
     10 C          63.4746   85.4441   13.1409 C.ar    1  UNL1        0.0738
     11 C          63.6916   84.8524   11.7798 C.ar    1  UNL1        0.0175
     12 C          63.4317   83.3936   11.5460 C.ar    1  UNL1        0.0579
     13 CL         63.6488   82.8019   10.1848 Cl      1  UNL1       -0.0822
     14 C          62.9548   82.5267   12.6733 C.ar    1  UNL1        0.0130
     15 C          62.7377   83.1184   14.0345 C.ar    1  UNL1        0.0219
     16 C          62.9976   84.5771   14.2683 C.ar    1  UNL1        0.1073
     17 N          62.7805   85.1689   15.6294 N.ar    1  UNL1       -0.1477
     18 N          63.8470   85.4687   16.6408 N.ar    1  UNL1       -0.1447
     19 C          63.1844   86.0498   17.8546 C.ar    1  UNL1        0.1446
     20 C          61.7085   86.1091   17.5935 C.ar    1  UNL1        0.1446
     21 N          61.4589   85.5647   16.2182 N.ar    1  UNL1       -0.1447
     22 C          64.2541   89.8202   13.8423 C.3     1  UNL1        0.0510
     23 C          65.0768   91.0716   13.7574 C.ar    1  UNL1        0.0086
     24 C          65.6699   91.4918   12.4452 C.ar    1  UNL1        0.0189
     25 C          66.4925   92.7431   12.3604 C.ar    1  UNL1        0.1027
     26 C          66.7221   93.5744   13.5877 C.ar    1  UNL1        0.0232
     27 C          66.1291   93.1543   14.8998 C.ar    1  UNL1        0.0309
     28 C          65.3064   91.9029   14.9847 C.ar    1  UNL1        0.1363
     29 F          64.7134   91.4828   16.2969 F       1  UNL1       -0.2045
     30 N          67.0856   93.1633   11.0482 N.ar    1  UNL1       -0.1478
     31 N          67.1274   94.5616   10.5069 N.ar    1  UNL1       -0.1447
     32 C          67.8086   94.5214    9.1711 C.ar    1  UNL1        0.1446
     33 C          68.1878   93.0982    8.8868 C.ar    1  UNL1        0.1446
     34 N          67.7410   92.2588   10.0470 N.ar    1  UNL1       -0.1447
@<TRIPOS>BOND
     1     2     1    1
     2     2     3    1
     3     3     4    1
     4     4     5   am
     5     5     6    2
     6     5    10    1
     7    10    11   ar
     8    11    12   ar
     9    12    13    1
    10    12    14   ar
    11    14    15   ar
    12    15    16   ar
    13    16    17    1
    14    17    18   ar
    15    18    19   ar
    16    19    20   ar
    17    20    21   ar
    18     4     7    1
    19     7    22    1
    20    22    23    1
    21    23    24   ar
    22    24    25   ar
    23    25    30    1
    24    30    31   ar
    25    31    32   ar
    26    32    33   ar
    27    33    34   ar
    28    25    26   ar
    29    26    27   ar
    30    27    28   ar
    31    28    29    1
    32     7     8    1
    33     8     9    1
    34     9     2    1
    35    16    10   ar
    36    21    17   ar
    37    28    23   ar
    38    34    30   ar
