@<TRIPOS>MOLECULE
*****
 61 68 0 0 0
SMALL
GASTEIGER

@<TRIPOS>ATOM
      1 N          65.3712   89.3727   14.6525 N.3     1  UNL1       -0.1862
      2 C          65.5697   88.1252   15.4613 C.3     1  UNL1        0.1775
      3 C          64.8387   86.8682   15.0930 C.2     1  UNL1        0.2452
      4 O          65.0373   85.6207   15.9019 O.2     1  UNL1       -0.2732
      5 N          63.9091   86.8587   13.9158 N.am    1  UNL1       -0.2541
      6 C          63.1781   85.6018   13.5475 C.3     1  UNL1        0.1577
      7 C          62.2486   85.5923   12.3704 C.2     1  UNL1        0.2445
      8 O          61.5176   84.3353   12.0021 O.2     1  UNL1       -0.2731
      9 N          62.0500   86.8398   11.5614 N.am    1  UNL1       -0.2705
     10 C          62.7810   88.0968   11.9297 C.3     1  UNL1        0.1359
     11 C          63.7106   88.1062   13.1070 C.3     1  UNL1        0.1908
     12 N          64.4416   89.3632   13.4753 N.am    1  UNL1       -0.1863
     13 C          64.2430   90.6107   12.6663 C.2     1  UNL1        0.3191
     14 O          63.3134   90.6012   11.4892 O.2     1  UNL1       -0.2512
     15 N          64.9740   91.8677   13.0347 N.am    1  UNL1       -0.2836
     16 H          65.5841   91.8739   13.8073 H       1  UNL1        0.1513
     17 C          66.1022   90.6297   15.0208 C.3     1  UNL1        0.1188
     18 C          68.0918   92.2464   14.5994 C.2     1  UNL1       -0.0034
     19 C          67.4782   90.8828   14.4801 C.2     1  UNL1       -0.0071
     20 C          63.3767   84.3543   14.3564 C.3     1  UNL1        0.0556
     21 C          63.1711   83.0097   13.7240 C.ar    1  UNL1       -0.0198
     22 C          62.1518   82.0642   14.2869 C.ar    1  UNL1       -0.0011
     23 C          61.9462   80.7196   13.6545 C.ar    1  UNL1        0.0363
     24 C          62.7600   80.3206   12.4593 C.ar    1  UNL1        0.1337
     25 O          62.5544   78.9760   11.8269 O.3     1  UNL1       -0.5055
     26 C          63.7794   81.2662   11.8964 C.ar    1  UNL1        0.0363
     27 C          63.9850   82.6107   12.5288 C.ar    1  UNL1       -0.0011
     28 H          61.9176   78.3854   12.1785 H       1  UNL1        0.2922
     29 C          61.1204   86.8303   10.3843 C.3     1  UNL1        0.1217
     30 C          60.5415   88.1172    9.8753 C.ar    1  UNL1        0.0135
     31 C          60.3615   89.2789   10.8070 C.ar    1  UNL1       -0.0012
     32 C          59.7827   90.5657   10.2981 C.ar    1  UNL1       -0.0002
     33 C          59.3838   90.6908    8.8575 C.ar    1  UNL1        0.0016
     34 C          59.5638   89.5290    7.9259 C.ar    1  UNL1        0.0214
     35 C          59.2648   89.3575    6.4660 C.ar    1  UNL1        0.0721
     36 C          59.6588   87.9646    6.0727 C.ar    1  UNL1        0.0805
     37 N          60.2014   87.2754    7.2894 N.ar    1  UNL1       -0.3241
     38 C          60.7128   85.8666    7.3502 C.3     1  UNL1        0.1305
     39 C          60.1427   88.2422    8.4347 C.ar    1  UNL1        0.0577
     40 C          58.6752   90.3964    5.5587 C.2     1  UNL1        0.2506
     41 O          57.1995   90.6645    5.5847 O.2     1  UNL1       -0.2699
     42 N          59.5612   91.1673    4.6256 N.am    1  UNL1       -0.2732
     43 C          58.9717   92.2062    3.7184 C.3     1  UNL1        0.1110
     44 C          59.8578   92.9770    2.7853 C.3     1  UNL1        0.0939
     45 N          61.3334   92.7089    2.7593 N.3     1  UNL1       -0.2710
     46 C          61.9229   91.6700    3.6666 C.3     1  UNL1        0.0939
     47 C          61.0369   90.8991    4.5998 C.3     1  UNL1        0.1110
     48 C          62.2194   93.4798    1.8262 C.3     1  UNL1        0.0604
     49 C          63.6838   93.1638    1.7501 C.3     1  UNL1        0.0333
     50 C          64.5698   93.9347    0.8170 C.3     1  UNL1        0.0735
     51 N          63.9914   95.0214   -0.0400 N.3     1  UNL1       -0.2714
     52 C          64.8774   95.7922   -0.9732 C.3     1  UNL1        0.0896
     53 C          62.5270   95.3373    0.0360 C.3     1  UNL1        0.0735
     54 C          61.6410   94.5665    0.9692 C.3     1  UNL1        0.0333
     55 C          64.7754   93.1152   12.2258 C.3     1  UNL1        0.1177
     56 C          65.8091   93.5301   11.2211 C.ar    1  UNL1       -0.0025
     57 C          65.9146   94.9668   10.8032 C.ar    1  UNL1       -0.0026
     58 C          66.9483   95.3817    9.7986 C.ar    1  UNL1       -0.0003
     59 C          67.8764   94.3599    9.2117 C.ar    1  UNL1       -0.0000
     60 C          67.7709   92.9231    9.6296 C.ar    1  UNL1       -0.0003
     61 C          66.7373   92.5082   10.6343 C.ar    1  UNL1       -0.0026
@<TRIPOS>BOND
     1    18    19    2
     2    19    17    1
     3    17     1    1
     4     1     2    1
     5     2     3    1
     6     3     4    2
     7     3     5   am
     8     5     6    1
     9     6    20    1
    10    20    21    1
    11    21    22   ar
    12    22    23   ar
    13    23    24   ar
    14    24    25    1
    15    24    26   ar
    16    26    27   ar
    17     6     7    1
    18     7     8    2
    19     7     9   am
    20     9    29    1
    21    29    30    1
    22    30    31   ar
    23    31    32   ar
    24    32    33   ar
    25    33    34   ar
    26    34    35   ar
    27    35    40    1
    28    40    41    2
    29    40    42   am
    30    42    43    1
    31    43    44    1
    32    44    45    1
    33    45    48    1
    34    48    49    1
    35    49    50    1
    36    50    51    1
    37    51    52    1
    38    51    53    1
    39    53    54    1
    40    45    46    1
    41    46    47    1
    42    35    36   ar
    43    36    37   ar
    44    37    38    1
    45    37    39   ar
    46     9    10    1
    47    11    10    1
    48    11    12    1
    49    12    13   am
    50    13    14    2
    51    13    15   am
    52    15    55    1
    53    55    56    1
    54    56    57   ar
    55    57    58   ar
    56    58    59   ar
    57    59    60   ar
    58    60    61   ar
    59    12     1    1
    60    61    56   ar
    61    11     5    1
    62    27    21   ar
    63    39    30   ar
    64    39    34   ar
    65    47    42    1
    66    54    48    1
    67    25    28    1
    68    15    16    1
