@<TRIPOS>MOLECULE
*****
 22 25 0 0 0
SMALL
GASTEIGER

@<TRIPOS>ATOM
      1 C          66.2635   92.4616   12.4378 C.3     1  UNL1        0.1286
      2 C          65.0077   91.6414   12.4153 C.2     1  UNL1       -0.0136
      3 C          64.5916   90.8733   13.6345 C.2     1  UNL1       -0.0044
      4 C          63.3359   90.0531   13.6120 C.2     1  UNL1        0.0198
      5 C          62.4963   90.0011   12.3701 C.2     1  UNL1        0.0969
      6 N          61.2172   89.2848   12.0526 N.2     1  UNL1       -0.2228
      7 C          60.8428   89.6103   10.6370 C.2     1  UNL1        0.1986
      8 N          61.8905   90.5278   10.0796 N.2     1  UNL1       -0.2265
      9 C          62.9124   90.7693   11.1508 C.2     1  UNL1        0.0824
     10 C          64.1681   91.5894   11.1733 C.3     1  UNL1        0.0715
     11 CL         66.5842   96.4350    9.1048 Cl      1  UNL1       -0.0823
     12 C          66.9581   95.0369    9.4991 C.ar    1  UNL1        0.0574
     13 C          67.8660   94.2275    8.6215 C.ar    1  UNL1        0.0114
     14 C          68.2399   92.8293    9.0159 C.ar    1  UNL1        0.0006
     15 C          67.7057   92.2407   10.2880 C.ar    1  UNL1       -0.0021
     16 C          66.7977   93.0502   11.1657 C.ar    1  UNL1        0.0030
     17 C          66.4239   94.4483   10.7713 C.ar    1  UNL1        0.0093
     18 N          66.9849   92.6932   13.7322 N.ar    1  UNL1       -0.3023
     19 C          68.0924   91.8477   14.2879 C.ar    1  UNL1        0.0985
     20 C          68.5176   92.4429   15.5975 C.ar    1  UNL1        0.1193
     21 N          67.6729   93.6562   15.8512 N.ar    1  UNL1       -0.2223
     22 C          66.7256   93.8109   14.6985 C.ar    1  UNL1        0.1790
@<TRIPOS>BOND
     1    11    12    1
     2    12    13   ar
     3    13    14   ar
     4    14    15   ar
     5    15    16   ar
     6    16     1    1
     7     1     2    1
     8     2     3    2
     9     3     4    1
    10     4     5    2
    11     5     6    1
    12     6     7    2
    13     7     8    1
    14     8     9    2
    15     9    10    1
    16     1    18    1
    17    18    19   ar
    18    19    20   ar
    19    20    21   ar
    20    21    22   ar
    21    16    17   ar
    22    17    12   ar
    23    10     2    1
    24    22    18   ar
    25     9     5    1
@<TRIPOS>MOLECULE
*****
 22 25 0 0 0
SMALL
GASTEIGER

@<TRIPOS>ATOM
      1 C          66.0819   92.3025   12.7935 C.3     1  UNL1        0.1286
      2 C          66.5546   93.0585   11.5871 C.2     1  UNL1       -0.0136
      3 C          67.4414   92.3868   10.5811 C.2     1  UNL1       -0.0044
      4 C          67.9141   93.1427    9.3747 C.2     1  UNL1        0.0198
      5 C          67.4998   94.5703    9.1744 C.2     1  UNL1        0.0969
      6 N          67.8058   95.5617    8.0912 N.2     1  UNL1       -0.2228
      7 C          67.1081   96.8461    8.4278 C.2     1  UNL1        0.1986
      8 N          66.3707   96.6486    9.7190 N.2     1  UNL1       -0.2265
      9 C          66.6128   95.2420   10.1805 C.2     1  UNL1        0.0824
     10 C          66.1402   94.4861   11.3868 C.3     1  UNL1        0.0715
     11 CL         62.0175   90.4837   10.1154 Cl      1  UNL1       -0.0823
     12 C          62.8746   90.4670   11.3463 C.ar    1  UNL1        0.0574
     13 C          62.5567   89.5245   12.4690 C.ar    1  UNL1        0.0114
     14 C          63.4138   89.5079   13.6999 C.ar    1  UNL1        0.0006
     15 C          64.5889   90.4339   13.8080 C.ar    1  UNL1       -0.0021
     16 C          64.9069   91.3765   12.6853 C.ar    1  UNL1        0.0030
     17 C          64.0497   91.3931   11.4545 C.ar    1  UNL1        0.0093
     18 N          66.7843   92.4727   14.1078 N.ar    1  UNL1       -0.3023
     19 C          68.2425   92.2334   14.3658 C.ar    1  UNL1        0.0985
     20 C          68.5112   92.5248   15.8125 C.ar    1  UNL1        0.1193
     21 N          67.2192   92.9442   16.4486 N.ar    1  UNL1       -0.2223
     22 C          66.1518   92.9120   15.3951 C.ar    1  UNL1        0.1790
@<TRIPOS>BOND
     1    11    12    1
     2    12    13   ar
     3    13    14   ar
     4    14    15   ar
     5    15    16   ar
     6    16     1    1
     7     1     2    1
     8     2     3    2
     9     3     4    1
    10     4     5    2
    11     5     6    1
    12     6     7    2
    13     7     8    1
    14     8     9    2
    15     9    10    1
    16     1    18    1
    17    18    19   ar
    18    19    20   ar
    19    20    21   ar
    20    21    22   ar
    21    16    17   ar
    22    17    12   ar
    23    10     2    1
    24    22    18   ar
    25     9     5    1
@<TRIPOS>MOLECULE
*****
 22 25 0 0 0
SMALL
GASTEIGER

@<TRIPOS>ATOM
      1 C          61.9606   86.6494   10.2301 C.3     1  UNL1        0.1286
      2 C          62.5505   85.3720   10.7504 C.2     1  UNL1       -0.0136
      3 C          63.4293   84.5372    9.8669 C.2     1  UNL1       -0.0044
      4 C          64.0192   83.2599   10.3872 C.2     1  UNL1        0.0198
      5 C          63.7302   82.8175   11.7910 C.2     1  UNL1        0.0969
      6 N          64.1670   81.6153   12.5744 N.2     1  UNL1       -0.2228
      7 C          63.5581   81.7071   13.9422 C.2     1  UNL1        0.1986
      8 N          62.7449   82.9661   14.0041 N.2     1  UNL1       -0.2265
      9 C          62.8513   83.6524   12.6745 C.2     1  UNL1        0.0824
     10 C          62.2615   84.9297   12.1542 C.3     1  UNL1        0.0715
     11 CL         64.0650   89.4510   14.0671 Cl      1  UNL1       -0.0823
     12 C          63.4863   89.3684   12.6857 C.ar    1  UNL1        0.0574
     13 C          63.3811   90.6036   11.8415 C.ar    1  UNL1        0.0114
     14 C          62.8023   90.5210   10.4600 C.ar    1  UNL1        0.0006
     15 C          62.3289   89.2029    9.9229 C.ar    1  UNL1       -0.0021
     16 C          62.4341   87.9674   10.7672 C.ar    1  UNL1        0.0030
     17 C          63.0128   88.0502   12.1486 C.ar    1  UNL1        0.0093
     18 N          60.8974   86.6085    9.1730 N.ar    1  UNL1       -0.3023
     19 C          59.5814   87.3270    9.2178 C.ar    1  UNL1        0.0985
     20 C          58.8341   87.0045    7.9578 C.ar    1  UNL1        0.1193
     21 N          59.6882   86.0868    7.1342 N.ar    1  UNL1       -0.2223
     22 C          60.9634   85.8421    7.8852 C.ar    1  UNL1        0.1790
@<TRIPOS>BOND
     1    11    12    1
     2    12    13   ar
     3    13    14   ar
     4    14    15   ar
     5    15    16   ar
     6    16     1    1
     7     1     2    1
     8     2     3    2
     9     3     4    1
    10     4     5    2
    11     5     6    1
    12     6     7    2
    13     7     8    1
    14     8     9    2
    15     9    10    1
    16     1    18    1
    17    18    19   ar
    18    19    20   ar
    19    20    21   ar
    20    21    22   ar
    21    16    17   ar
    22    17    12   ar
    23    10     2    1
    24    22    18   ar
    25     9     5    1
@<TRIPOS>MOLECULE
*****
 22 25 0 0 0
SMALL
GASTEIGER

@<TRIPOS>ATOM
      1 C          61.9932   86.5526   10.2470 C.3     1  UNL1        0.1286
      2 C          62.4615   87.8407   10.8567 C.2     1  UNL1       -0.0136
      3 C          62.3407   89.1224   10.0870 C.2     1  UNL1       -0.0044
      4 C          62.8091   90.4104   10.6967 C.2     1  UNL1        0.0198
      5 C          63.3983   90.4166   12.0761 C.2     1  UNL1        0.0969
      6 N          63.9416   91.5234   12.9305 N.2     1  UNL1       -0.2228
      7 C          64.3982   90.9256   14.2282 C.2     1  UNL1        0.1986
      8 N          64.1371   89.4494   14.1759 N.2     1  UNL1       -0.2265
      9 C          63.5191   89.1348   12.8458 C.2     1  UNL1        0.0824
     10 C          63.0507   87.8469   12.2361 C.3     1  UNL1        0.0715
     11 CL         62.7225   82.9155   13.8856 Cl      1  UNL1       -0.0823
     12 C          62.9677   83.4338   12.4995 C.ar    1  UNL1        0.0574
     13 C          63.8227   82.6521   11.5468 C.ar    1  UNL1        0.0114
     14 C          64.0679   83.1705   10.1606 C.ar    1  UNL1        0.0006
     15 C          63.4580   84.4707    9.7274 C.ar    1  UNL1       -0.0021
     16 C          62.6030   85.2525   10.6802 C.ar    1  UNL1        0.0030
     17 C          62.3579   84.7341   12.0663 C.ar    1  UNL1        0.0093
     18 N          60.9151   86.5648    9.2043 N.ar    1  UNL1       -0.3023
     19 C          59.6378   87.3489    9.2656 C.ar    1  UNL1        0.0985
     20 C          58.8582   87.0637    8.0163 C.ar    1  UNL1        0.1193
     21 N          59.6537   86.1032    7.1827 N.ar    1  UNL1       -0.2223
     22 C          60.9249   85.7948    7.9169 C.ar    1  UNL1        0.1790
@<TRIPOS>BOND
     1    11    12    1
     2    12    13   ar
     3    13    14   ar
     4    14    15   ar
     5    15    16   ar
     6    16     1    1
     7     1     2    1
     8     2     3    2
     9     3     4    1
    10     4     5    2
    11     5     6    1
    12     6     7    2
    13     7     8    1
    14     8     9    2
    15     9    10    1
    16     1    18    1
    17    18    19   ar
    18    19    20   ar
    19    20    21   ar
    20    21    22   ar
    21    16    17   ar
    22    17    12   ar
    23    10     2    1
    24    22    18   ar
    25     9     5    1
@<TRIPOS>MOLECULE
*****
 22 25 0 0 0
SMALL
GASTEIGER

@<TRIPOS>ATOM
      1 C          61.9291   86.3300   10.2294 C.3     1  UNL1        0.1286
      2 C          62.4383   85.4361   11.3211 C.2     1  UNL1       -0.0136
      3 C          63.0517   86.0318   12.5534 C.2     1  UNL1       -0.0044
      4 C          63.5609   85.1379   13.6451 C.2     1  UNL1        0.0198
      5 C          63.4567   83.6482   13.5043 C.2     1  UNL1        0.0969
      6 N          63.8686   82.5234   14.4072 N.2     1  UNL1       -0.2228
      7 C          63.5097   81.2325   13.7329 C.2     1  UNL1        0.1986
      8 N          62.8760   81.5594   12.4132 N.2     1  UNL1       -0.2265
      9 C          62.8432   83.0524   12.2719 C.2     1  UNL1        0.0824
     10 C          62.3341   83.9463   11.1803 C.3     1  UNL1        0.0715
     11 CL         63.0987   91.3927   10.1977 Cl      1  UNL1       -0.0823
     12 C          62.1430   90.2823   10.5196 C.ar    1  UNL1        0.0574
     13 C          60.8166   90.5926   11.1475 C.ar    1  UNL1        0.0114
     14 C          59.8609   89.4821   11.4694 C.ar    1  UNL1        0.0006
     15 C          60.2318   88.0613   11.1634 C.ar    1  UNL1       -0.0021
     16 C          61.5583   87.7508   10.5354 C.ar    1  UNL1        0.0030
     17 C          62.5138   88.8614   10.2136 C.ar    1  UNL1        0.0093
     18 N          61.7908   85.8031    8.8319 N.ar    1  UNL1       -0.3023
     19 C          62.8733   85.1498    8.0247 C.ar    1  UNL1        0.0985
     20 C          62.2972   84.7800    6.6901 C.ar    1  UNL1        0.1193
     21 N          60.8587   85.2046    6.6724 N.ar    1  UNL1       -0.2223
     22 C          60.5457   85.8370    7.9960 C.ar    1  UNL1        0.1790
@<TRIPOS>BOND
     1    11    12    1
     2    12    13   ar
     3    13    14   ar
     4    14    15   ar
     5    15    16   ar
     6    16     1    1
     7     1     2    1
     8     2     3    2
     9     3     4    1
    10     4     5    2
    11     5     6    1
    12     6     7    2
    13     7     8    1
    14     8     9    2
    15     9    10    1
    16     1    18    1
    17    18    19   ar
    18    19    20   ar
    19    20    21   ar
    20    21    22   ar
    21    16    17   ar
    22    17    12   ar
    23    10     2    1
    24    22    18   ar
    25     9     5    1
@<TRIPOS>MOLECULE
*****
 22 25 0 0 0
SMALL
GASTEIGER

@<TRIPOS>ATOM
      1 C          62.7689   84.9827   12.5402 C.3     1  UNL1        0.1286
      2 C          62.2885   86.1092   11.6740 C.2     1  UNL1       -0.0136
      3 C          62.8446   87.4895   11.8619 C.2     1  UNL1       -0.0044
      4 C          62.3641   88.6160   10.9957 C.2     1  UNL1        0.0198
      5 C          61.3275   88.3621    9.9417 C.2     1  UNL1        0.0969
      6 N          60.6664   89.2677    8.9454 N.2     1  UNL1       -0.2228
      7 C          59.7017   88.4471    8.1417 C.2     1  UNL1        0.1986
      8 N          59.7666   87.0342    8.6414 N.2     1  UNL1       -0.2265
      9 C          60.7714   86.9817    9.7538 C.2     1  UNL1        0.0824
     10 C          61.2519   85.8552   10.6200 C.3     1  UNL1        0.0715
     11 CL         62.3791   79.8060   12.7645 Cl      1  UNL1       -0.0823
     12 C          62.8343   81.0447   12.0515 C.ar    1  UNL1        0.0574
     13 C          63.5497   80.9339   10.7378 C.ar    1  UNL1        0.0114
     14 C          64.0049   82.1727   10.0248 C.ar    1  UNL1        0.0006
     15 C          63.7446   83.5222   10.6256 C.ar    1  UNL1       -0.0021
     16 C          63.0292   83.6331   11.9394 C.ar    1  UNL1        0.0030
     17 C          62.5740   82.3944   12.6523 C.ar    1  UNL1        0.0093
     18 N          62.9891   85.2057   14.0070 N.ar    1  UNL1       -0.3023
     19 C          64.2017   85.8297   14.6318 C.ar    1  UNL1        0.0985
     20 C          63.9973   85.8536   16.1176 C.ar    1  UNL1        0.1193
     21 N          62.6584   85.2443   16.4112 N.ar    1  UNL1       -0.2223
     22 C          62.0353   84.8439   15.1068 C.ar    1  UNL1        0.1790
@<TRIPOS>BOND
     1    11    12    1
     2    12    13   ar
     3    13    14   ar
     4    14    15   ar
     5    15    16   ar
     6    16     1    1
     7     1     2    1
     8     2     3    2
     9     3     4    1
    10     4     5    2
    11     5     6    1
    12     6     7    2
    13     7     8    1
    14     8     9    2
    15     9    10    1
    16     1    18    1
    17    18    19   ar
    18    19    20   ar
    19    20    21   ar
    20    21    22   ar
    21    16    17   ar
    22    17    12   ar
    23    10     2    1
    24    22    18   ar
    25     9     5    1
@<TRIPOS>MOLECULE
*****
 22 25 0 0 0
SMALL
GASTEIGER

@<TRIPOS>ATOM
      1 C          62.7503   85.2497   11.9537 C.3     1  UNL1        0.1286
      2 C          63.2610   86.4440   12.7040 C.2     1  UNL1       -0.0136
      3 C          63.9873   86.2593   14.0032 C.2     1  UNL1       -0.0044
      4 C          64.4980   87.4537   14.7535 C.2     1  UNL1        0.0198
      5 C          64.2821   88.8327   14.2044 C.2     1  UNL1        0.0969
      6 N          64.6685   90.1887   14.7164 N.2     1  UNL1       -0.2228
      7 C          64.1808   91.2114   13.7335 C.2     1  UNL1        0.1986
      8 N          63.4931   90.4876   12.6141 N.2     1  UNL1       -0.2265
      9 C          63.5557   89.0175   12.9051 C.2     1  UNL1        0.0824
     10 C          63.0451   87.8231   12.1549 C.3     1  UNL1        0.0715
     11 CL         59.3721   86.8097    8.3269 Cl      1  UNL1       -0.0823
     12 C          60.6726   86.1604    8.6974 C.ar    1  UNL1        0.0574
     13 C          61.5843   85.6418    7.6251 C.ar    1  UNL1        0.0114
     14 C          62.8848   84.9925    7.9957 C.ar    1  UNL1        0.0006
     15 C          63.2734   84.8618    9.4385 C.ar    1  UNL1       -0.0021
     16 C          62.3617   85.3804   10.5109 C.ar    1  UNL1        0.0030
     17 C          61.0613   86.0296   10.1403 C.ar    1  UNL1        0.0093
     18 N          62.6283   83.9248   12.6463 N.ar    1  UNL1       -0.3023
     19 C          62.7165   82.5772   11.9934 C.ar    1  UNL1        0.0985
     20 C          62.5394   81.5344   13.0570 C.ar    1  UNL1        0.1193
     21 N          62.3418   82.2375   14.3672 N.ar    1  UNL1       -0.2223
     22 C          62.3968   83.7148   14.1134 C.ar    1  UNL1        0.1790
@<TRIPOS>BOND
     1    11    12    1
     2    12    13   ar
     3    13    14   ar
     4    14    15   ar
     5    15    16   ar
     6    16     1    1
     7     1     2    1
     8     2     3    2
     9     3     4    1
    10     4     5    2
    11     5     6    1
    12     6     7    2
    13     7     8    1
    14     8     9    2
    15     9    10    1
    16     1    18    1
    17    18    19   ar
    18    19    20   ar
    19    20    21   ar
    20    21    22   ar
    21    16    17   ar
    22    17    12   ar
    23    10     2    1
    24    22    18   ar
    25     9     5    1
@<TRIPOS>MOLECULE
*****
 22 25 0 0 0
SMALL
GASTEIGER

@<TRIPOS>ATOM
      1 C          62.3798   86.8680   11.1501 C.3     1  UNL1        0.1286
      2 C          62.7669   85.7334   12.0518 C.2     1  UNL1       -0.0136
      3 C          63.5291   86.0055   13.3146 C.2     1  UNL1       -0.0044
      4 C          63.9162   84.8709   14.2163 C.2     1  UNL1        0.0198
      5 C          63.5410   83.4643   13.8550 C.2     1  UNL1        0.0969
      6 N          63.7831   82.1530   14.5419 N.2     1  UNL1       -0.2228
      7 C          63.1704   81.0705   13.7036 C.2     1  UNL1        0.1986
      8 N          62.5497   81.7128   12.4985 N.2     1  UNL1       -0.2265
      9 C          62.7787   83.1922   12.5920 C.2     1  UNL1        0.0824
     10 C          62.3917   84.3268   11.6904 C.3     1  UNL1        0.0715
     11 CL         62.0682   84.7275    6.4256 Cl      1  UNL1       -0.0823
     12 C          61.4481   85.5272    7.5328 C.ar    1  UNL1        0.0574
     13 C          60.0524   86.0563    7.3851 C.ar    1  UNL1        0.0114
     14 C          59.4324   86.8561    8.4924 C.ar    1  UNL1        0.0006
     15 C          60.2082   87.1266    9.7474 C.ar    1  UNL1       -0.0021
     16 C          61.6040   86.5975    9.8951 C.ar    1  UNL1        0.0030
     17 C          62.2240   85.7978    8.7879 C.ar    1  UNL1        0.0093
     18 N          62.7685   88.2730   11.5033 N.ar    1  UNL1       -0.3023
     19 C          62.5521   89.4884   10.6513 C.ar    1  UNL1        0.0985
     20 C          63.0917   90.6759   11.3921 C.ar    1  UNL1        0.1193
     21 N          63.6416   90.1944   12.7020 N.ar    1  UNL1       -0.2223
     22 C          63.4419   88.7093   12.7707 C.ar    1  UNL1        0.1790
@<TRIPOS>BOND
     1    11    12    1
     2    12    13   ar
     3    13    14   ar
     4    14    15   ar
     5    15    16   ar
     6    16     1    1
     7     1     2    1
     8     2     3    2
     9     3     4    1
    10     4     5    2
    11     5     6    1
    12     6     7    2
    13     7     8    1
    14     8     9    2
    15     9    10    1
    16     1    18    1
    17    18    19   ar
    18    19    20   ar
    19    20    21   ar
    20    21    22   ar
    21    16    17   ar
    22    17    12   ar
    23    10     2    1
    24    22    18   ar
    25     9     5    1
@<TRIPOS>MOLECULE
*****
 22 25 0 0 0
SMALL
GASTEIGER

@<TRIPOS>ATOM
      1 C          61.8939   86.2122   10.0800 C.3     1  UNL1        0.1286
      2 C          62.3810   85.2880   11.1565 C.2     1  UNL1       -0.0136
      3 C          62.3877   83.8059   10.9262 C.2     1  UNL1       -0.0044
      4 C          62.8748   82.8817   12.0027 C.2     1  UNL1        0.0198
      5 C          63.3553   83.4399   13.3094 C.2     1  UNL1        0.0969
      6 N          63.8887   82.7809   14.5468 N.2     1  UNL1       -0.2228
      7 C          64.2117   83.8558   15.5419 C.2     1  UNL1        0.1986
      8 N          63.8780   85.1792   14.9195 N.2     1  UNL1       -0.2265
      9 C          63.3487   84.9221   13.5397 C.2     1  UNL1        0.0824
     10 C          62.8615   85.8462   12.4632 C.3     1  UNL1        0.0715
     11 CL         63.0848   91.2698   10.1171 Cl      1  UNL1       -0.0823
     12 C          62.1287   90.1581   10.4333 C.ar    1  UNL1        0.0574
     13 C          60.8123   90.4633   11.0841 C.ar    1  UNL1        0.0114
     14 C          59.8562   89.3515   11.4003 C.ar    1  UNL1        0.0006
     15 C          60.2168   87.9345   11.0656 C.ar    1  UNL1       -0.0021
     16 C          61.5333   87.6292   10.4147 C.ar    1  UNL1        0.0030
     17 C          62.4893   88.7410   10.0986 C.ar    1  UNL1        0.0093
     18 N          61.7673   85.7193    8.6691 N.ar    1  UNL1       -0.3023
     19 C          62.8568   85.0866    7.8550 C.ar    1  UNL1        0.0985
     20 C          62.2919   84.7489    6.5071 C.ar    1  UNL1        0.1193
     21 N          60.8531   85.1728    6.4881 N.ar    1  UNL1       -0.2223
     22 C          60.5289   85.7726    7.8242 C.ar    1  UNL1        0.1790
@<TRIPOS>BOND
     1    11    12    1
     2    12    13   ar
     3    13    14   ar
     4    14    15   ar
     5    15    16   ar
     6    16     1    1
     7     1     2    1
     8     2     3    2
     9     3     4    1
    10     4     5    2
    11     5     6    1
    12     6     7    2
    13     7     8    1
    14     8     9    2
    15     9    10    1
    16     1    18    1
    17    18    19   ar
    18    19    20   ar
    19    20    21   ar
    20    21    22   ar
    21    16    17   ar
    22    17    12   ar
    23    10     2    1
    24    22    18   ar
    25     9     5    1
