@<TRIPOS>MOLECULE
*****
 47 50 0 0 0
SMALL
GASTEIGER

@<TRIPOS>ATOM
      1 C          62.3314   87.6915   11.2713 C.ar    1  UNL1        0.0703
      2 C          62.9292   86.6632   12.1852 C.ar    1  UNL1        0.0465
      3 C          62.6982   85.2041   11.9253 C.3     1  UNL1        0.0503
      4 N          63.7580   87.0940   13.3589 N.ar    1  UNL1       -0.2806
      5 C          63.9890   88.5531   13.6187 C.ar    1  UNL1        0.3338
      6 O          64.5117   88.9486   14.3528 O.2     1  UNL1       -0.2462
      7 N          63.3912   89.5815   12.7048 N.ar    1  UNL1       -0.2470
      8 C          62.5624   89.1507   11.5311 C.ar    1  UNL1        0.2654
      9 O          61.9646   90.1791   10.6172 O.2     1  UNL1       -0.2668
     10 C          61.2914   86.0091    7.8307 C.ar    1  UNL1        0.1660
     11 C          59.8453   86.3992    7.7501 C.ar    1  UNL1        0.0392
     12 C          59.2278   87.2201    8.8433 C.ar    1  UNL1        0.0033
     13 C          60.0565   87.6508   10.0170 C.ar    1  UNL1        0.0026
     14 C          61.5027   87.2608   10.0976 C.ar    1  UNL1        0.0362
     15 C          62.1201   86.4399    9.0044 C.ar    1  UNL1        0.1739
     16 F          63.5663   86.0498    9.0850 F       1  UNL1       -0.2010
     17 C          61.0915   84.1516    6.0252 C.3     1  UNL1        0.2526
     18 O          61.9088   85.1882    6.7376 O.3     1  UNL1       -0.4692
     19 C          64.3557   86.0656   14.2728 C.3     1  UNL1        0.1391
     20 C          63.8591   84.6507   14.2363 C.ar    1  UNL1        0.0319
     21 C          64.4250   83.6827   13.2400 C.ar    1  UNL1        0.1379
     22 F          65.1201   83.8636   12.5673 F       1  UNL1       -0.2044
     23 C          63.9283   82.2677   13.2036 C.ar    1  UNL1        0.0294
     24 C          62.8659   81.8208   14.1635 C.ar    1  UNL1        0.0022
     25 C          62.3000   82.7889   15.1598 C.ar    1  UNL1        0.0037
     26 C          62.7966   84.2038   15.1963 C.ar    1  UNL1        0.0714
     27 C          62.2307   85.1719   16.1926 C.3     1  UNL1        0.4184
     28 F          61.6648   86.1400   17.1889 F       1  UNL1       -0.1659
     29 F          63.5773   85.2899   16.8428 F       1  UNL1       -0.1659
     30 F          60.8841   85.0539   15.5424 F       1  UNL1       -0.1659
     31 C          63.6222   91.0407   12.9646 C.3     1  UNL1        0.1337
     32 C          64.9602   91.6520   12.6716 C.3     1  UNL1        0.1000
     33 C          65.9121   91.9463   13.7928 C.ar    1  UNL1       -0.0061
     34 C          67.3904   91.9553   13.5387 C.ar    1  UNL1       -0.0029
     35 C          68.3423   92.2496   14.6600 C.ar    1  UNL1       -0.0003
     36 C          67.8160   92.5349   16.0353 C.ar    1  UNL1       -0.0000
     37 C          66.3377   92.5259   16.2894 C.ar    1  UNL1       -0.0003
     38 C          65.3857   92.2316   15.1682 C.ar    1  UNL1       -0.0029
     39 N          65.3463   91.9692   11.2572 N.3     1  UNL1       -0.2935
     40 H          64.8304   91.3236   10.6593 H       1  UNL1        0.1236
     41 C          65.1164   93.3458   10.7077 C.3     1  UNL1        0.0688
     42 C          66.0641   94.4573   11.0487 C.3     1  UNL1        0.0175
     43 C          67.1513   94.8375   10.0876 C.3     1  UNL1        0.0073
     44 C          67.4834   93.9356    8.9360 C.3     1  UNL1        0.0418
     45 C          68.3493   92.7300    9.1530 C.2     1  UNL1        0.0503
     46 O          69.0141   92.0641    7.9848 O.co2   1  UNL1       -0.5492
     47 O          68.5503   92.1904   10.5380 O.co2   1  UNL1       -0.5492
@<TRIPOS>UNITY_ATOM_ATTR
46 1
charge -1
@<TRIPOS>BOND
     1    17    18    1
     2    18    10    1
     3    10    11   ar
     4    11    12   ar
     5    12    13   ar
     6    13    14   ar
     7    14     1    1
     8     1     2   ar
     9     2     3    1
    10     2     4   ar
    11     4    19    1
    12    19    20    1
    13    20    21   ar
    14    21    22    1
    15    21    23   ar
    16    23    24   ar
    17    24    25   ar
    18    25    26   ar
    19    26    27    1
    20    27    28    1
    21    27    29    1
    22    27    30    1
    23     4     5   ar
    24     5     6    2
    25     5     7   ar
    26     7    31    1
    27    32    31    1
    28    32    39    1
    29    39    41    1
    30    41    42    1
    31    42    43    1
    32    43    44    1
    33    44    45    1
    34    45    46   ar
    35    45    47   ar
    36    32    33    1
    37    33    34   ar
    38    34    35   ar
    39    35    36   ar
    40    36    37   ar
    41    37    38   ar
    42     7     8   ar
    43     8     9    2
    44    14    15   ar
    45    15    16    1
    46    15    10   ar
    47     8     1   ar
    48    26    20   ar
    49    38    33   ar
    50    39    40    1
@<TRIPOS>MOLECULE
*****
 47 50 0 0 0
SMALL
GASTEIGER

@<TRIPOS>ATOM
      1 C          62.2626   87.9448   10.9495 C.ar    1  UNL1        0.0703
      2 C          62.8545   87.0272   11.9779 C.ar    1  UNL1        0.0465
      3 C          62.6200   85.5484   11.8874 C.3     1  UNL1        0.0503
      4 N          63.6809   87.5885   13.0970 N.ar    1  UNL1       -0.2806
      5 C          63.9153   89.0673   13.1875 C.ar    1  UNL1        0.3338
      6 O          64.4369   89.5434   13.8728 O.2     1  UNL1       -0.2462
      7 N          63.3234   89.9848   12.1590 N.ar    1  UNL1       -0.2470
      8 C          62.4970   89.4236   11.0400 C.ar    1  UNL1        0.2654
      9 O          61.9051   90.3411   10.0115 O.2     1  UNL1       -0.2668
     10 C          61.2523   85.9647    7.6619 C.ar    1  UNL1        0.1660
     11 C          59.7835   86.2611    7.5925 C.ar    1  UNL1        0.0392
     12 C          59.1411   87.1187    8.6422 C.ar    1  UNL1        0.0033
     13 C          59.9674   87.6799    9.7611 C.ar    1  UNL1        0.0026
     14 C          61.4362   87.3835    9.8305 C.ar    1  UNL1        0.0362
     15 C          62.0786   86.5259    8.7808 C.ar    1  UNL1        0.1739
     16 F          63.5474   86.2295    8.8502 F       1  UNL1       -0.2010
     17 C          61.1130   84.0031    5.9640 C.3     1  UNL1        0.2526
     18 O          61.8947   85.1070    6.6122 O.3     1  UNL1       -0.4692
     19 C          64.2728   86.6709   14.1254 C.3     1  UNL1        0.1391
     20 C          63.6573   86.5775   15.4901 C.ar    1  UNL1        0.0319
     21 C          63.5521   87.8015   16.3508 C.ar    1  UNL1        0.1379
     22 F          63.8511   88.7116   16.1253 F       1  UNL1       -0.2044
     23 C          62.9366   87.7080   17.7155 C.ar    1  UNL1        0.0294
     24 C          62.4263   86.3906   18.2195 C.ar    1  UNL1        0.0022
     25 C          62.5316   85.1667   17.3588 C.ar    1  UNL1        0.0037
     26 C          63.1470   85.2601   15.9941 C.ar    1  UNL1        0.0714
     27 C          63.2522   84.0361   15.1335 C.3     1  UNL1        0.4184
     28 F          63.3575   82.8121   14.2728 F       1  UNL1       -0.1659
     29 F          64.6681   83.8384   15.5877 F       1  UNL1       -0.1659
     30 F          61.8364   84.2338   14.6792 F       1  UNL1       -0.1659
     31 C          63.5578   91.4636   12.2495 C.3     1  UNL1        0.1337
     32 C          64.9483   92.0117   12.1222 C.3     1  UNL1        0.1000
     33 C          65.8231   92.1267   13.3353 C.ar    1  UNL1       -0.0061
     34 C          67.3128   92.0173   13.1988 C.ar    1  UNL1       -0.0029
     35 C          68.1876   92.1323   14.4118 C.ar    1  UNL1       -0.0003
     36 C          67.5726   92.3566   15.7614 C.ar    1  UNL1       -0.0000
     37 C          66.0828   92.4660   15.8980 C.ar    1  UNL1       -0.0003
     38 C          65.2080   92.3510   14.6850 C.ar    1  UNL1       -0.0029
     39 N          65.4640   92.4449   10.7819 N.3     1  UNL1       -0.2935
     40 H          64.9628   91.8971   10.0825 H       1  UNL1        0.1236
     41 C          65.3560   93.8818   10.3654 C.3     1  UNL1        0.0688
     42 C          66.4763   94.8345   10.6608 C.3     1  UNL1        0.0175
     43 C          67.5751   95.0338    9.6594 C.3     1  UNL1        0.0073
     44 C          67.8215   94.0003    8.6006 C.3     1  UNL1        0.0418
     45 C          68.5254   92.7224    8.9494 C.2     1  UNL1        0.0503
     46 O          69.0885   91.8555    7.8623 O.co2   1  UNL1       -0.5492
     47 O          68.6661   92.3113   10.3850 O.co2   1  UNL1       -0.5492
@<TRIPOS>UNITY_ATOM_ATTR
46 1
charge -1
@<TRIPOS>BOND
     1    17    18    1
     2    18    10    1
     3    10    11   ar
     4    11    12   ar
     5    12    13   ar
     6    13    14   ar
     7    14     1    1
     8     1     2   ar
     9     2     3    1
    10     2     4   ar
    11     4    19    1
    12    19    20    1
    13    20    21   ar
    14    21    22    1
    15    21    23   ar
    16    23    24   ar
    17    24    25   ar
    18    25    26   ar
    19    26    27    1
    20    27    28    1
    21    27    29    1
    22    27    30    1
    23     4     5   ar
    24     5     6    2
    25     5     7   ar
    26     7    31    1
    27    32    31    1
    28    32    39    1
    29    39    41    1
    30    41    42    1
    31    42    43    1
    32    43    44    1
    33    44    45    1
    34    45    46   ar
    35    45    47   ar
    36    32    33    1
    37    33    34   ar
    38    34    35   ar
    39    35    36   ar
    40    36    37   ar
    41    37    38   ar
    42     7     8   ar
    43     8     9    2
    44    14    15   ar
    45    15    16    1
    46    15    10   ar
    47     8     1   ar
    48    26    20   ar
    49    38    33   ar
    50    39    40    1
@<TRIPOS>MOLECULE
*****
 47 50 0 0 0
SMALL
GASTEIGER

@<TRIPOS>ATOM
      1 C          63.3108   88.1074   13.6384 C.ar    1  UNL1        0.0703
      2 C          64.0105   86.7950   13.8337 C.ar    1  UNL1        0.0465
      3 C          65.0990   86.6706   14.8582 C.3     1  UNL1        0.0503
      4 N          63.6217   85.6071   13.0044 N.ar    1  UNL1       -0.2806
      5 C          62.5332   85.7315   11.9798 C.ar    1  UNL1        0.3338
      6 O          62.1975   85.0243   11.3835 O.2     1  UNL1       -0.2462
      7 N          61.8335   87.0439   11.7845 N.ar    1  UNL1       -0.2470
      8 C          62.2223   88.2318   12.6138 C.ar    1  UNL1        0.2654
      9 O          61.5226   89.5442   12.4185 O.2     1  UNL1       -0.2668
     10 C          64.8589   91.6110   14.6767 C.ar    1  UNL1        0.1660
     11 C          64.4771   91.6712   16.1260 C.ar    1  UNL1        0.0392
     12 C          63.7066   90.5435   16.7461 C.ar    1  UNL1        0.0033
     13 C          63.3178   89.3556   15.9170 C.ar    1  UNL1        0.0026
     14 C          63.6996   89.2954   14.4676 C.ar    1  UNL1        0.0362
     15 C          64.4701   90.4231   13.8475 C.ar    1  UNL1        0.1739
     16 F          64.8519   90.3628   12.3981 F       1  UNL1       -0.2010
     17 C          67.0174   92.5033   13.5390 C.3     1  UNL1        0.2526
     18 O          65.6294   92.7387   14.0566 O.3     1  UNL1       -0.4692
     19 C          64.3214   84.2947   13.1997 C.3     1  UNL1        0.1391
     20 C          63.5259   83.0258   13.2830 C.ar    1  UNL1        0.0319
     21 C          63.6578   81.9861   12.2098 C.ar    1  UNL1        0.1379
     22 F          64.2311   82.0288   11.4111 F       1  UNL1       -0.2044
     23 C          62.8623   80.7172   12.2931 C.ar    1  UNL1        0.0294
     24 C          61.9349   80.4879   13.4496 C.ar    1  UNL1        0.0022
     25 C          61.8030   81.5276   14.5227 C.ar    1  UNL1        0.0037
     26 C          62.5985   82.7965   14.4395 C.ar    1  UNL1        0.0714
     27 C          62.4666   83.8362   15.5126 C.3     1  UNL1        0.4184
     28 F          62.3347   84.8759   16.5858 F       1  UNL1       -0.1659
     29 F          63.7219   83.3289   16.1584 F       1  UNL1       -0.1659
     30 F          61.2114   84.3435   14.8669 F       1  UNL1       -0.1659
     31 C          60.7451   87.1683   10.7600 C.3     1  UNL1        0.1337
     32 C          61.0869   87.5126    9.3406 C.3     1  UNL1        0.1000
     33 C          61.4066   86.4229    8.3607 C.ar    1  UNL1       -0.0061
     34 C          62.7949   85.8591    8.2925 C.ar    1  UNL1       -0.0029
     35 C          63.1145   84.7694    7.3125 C.ar    1  UNL1       -0.0003
     36 C          62.0459   84.2435    6.4007 C.ar    1  UNL1       -0.0000
     37 C          60.6575   84.8073    6.4689 C.ar    1  UNL1       -0.0003
     38 C          60.3378   85.8970    7.4489 C.ar    1  UNL1       -0.0029
     39 N          61.1090   88.9467    8.9012 N.3     1  UNL1       -0.2935
     40 H          61.7372   88.9993    8.0993 H       1  UNL1        0.1236
     41 C          59.8346   89.6274    8.4982 C.3     1  UNL1        0.0688
     42 C          59.0443   89.1104    7.3328 C.3     1  UNL1        0.0175
     43 C          59.4410   89.4803    5.9343 C.3     1  UNL1        0.0073
     44 C          59.6420   90.9208    5.5679 C.3     1  UNL1        0.0418
     45 C          58.5745   91.6596    4.8163 C.2     1  UNL1        0.0503
     46 O          58.9492   92.5857    3.6974 O.co2   1  UNL1       -0.5492
     47 O          57.1323   91.4721    5.1836 O.co2   1  UNL1       -0.5492
@<TRIPOS>UNITY_ATOM_ATTR
46 1
charge -1
@<TRIPOS>BOND
     1    17    18    1
     2    18    10    1
     3    10    11   ar
     4    11    12   ar
     5    12    13   ar
     6    13    14   ar
     7    14     1    1
     8     1     2   ar
     9     2     3    1
    10     2     4   ar
    11     4    19    1
    12    19    20    1
    13    20    21   ar
    14    21    22    1
    15    21    23   ar
    16    23    24   ar
    17    24    25   ar
    18    25    26   ar
    19    26    27    1
    20    27    28    1
    21    27    29    1
    22    27    30    1
    23     4     5   ar
    24     5     6    2
    25     5     7   ar
    26     7    31    1
    27    32    31    1
    28    32    39    1
    29    39    41    1
    30    41    42    1
    31    42    43    1
    32    43    44    1
    33    44    45    1
    34    45    46   ar
    35    45    47   ar
    36    32    33    1
    37    33    34   ar
    38    34    35   ar
    39    35    36   ar
    40    36    37   ar
    41    37    38   ar
    42     7     8   ar
    43     8     9    2
    44    14    15   ar
    45    15    16    1
    46    15    10   ar
    47     8     1   ar
    48    26    20   ar
    49    38    33   ar
    50    39    40    1
@<TRIPOS>MOLECULE
*****
 47 50 0 0 0
SMALL
GASTEIGER

@<TRIPOS>ATOM
      1 C          63.2773   88.2317   13.6750 C.ar    1  UNL1        0.0703
      2 C          63.9273   86.9025   13.9211 C.ar    1  UNL1        0.0465
      3 C          65.0026   86.7741   14.9590 C.3     1  UNL1        0.0503
      4 N          63.5019   85.7015   13.1295 N.ar    1  UNL1       -0.2806
      5 C          62.4265   85.8298   12.0916 C.ar    1  UNL1        0.3338
      6 O          62.0698   85.1151   11.5168 O.2     1  UNL1       -0.2462
      7 N          61.7765   87.1591   11.8455 N.ar    1  UNL1       -0.2470
      8 C          62.2020   88.3600   12.6371 C.ar    1  UNL1        0.2654
      9 O          61.5520   89.6894   12.3910 O.2     1  UNL1       -0.2668
     10 C          64.9090   91.7301   14.5963 C.ar    1  UNL1        0.1660
     11 C          64.5536   91.8346   16.0498 C.ar    1  UNL1        0.0392
     12 C          63.7728   90.7382   16.7117 C.ar    1  UNL1        0.0033
     13 C          63.3473   89.5372   15.9201 C.ar    1  UNL1        0.0026
     14 C          63.7028   89.4327   14.4666 C.ar    1  UNL1        0.0362
     15 C          64.4836   90.5292   13.8047 C.ar    1  UNL1        0.1739
     16 F          64.8390   90.4246   12.3512 F       1  UNL1       -0.2010
     17 C          66.9154   93.3806   14.5984 C.3     1  UNL1        0.2526
     18 O          65.6898   92.8266   13.9344 O.3     1  UNL1       -0.4692
     19 C          64.1518   84.3722   13.3756 C.3     1  UNL1        0.1391
     20 C          63.3182   83.1259   13.4166 C.ar    1  UNL1        0.0319
     21 C          62.4450   82.8463   14.6038 C.ar    1  UNL1        0.1379
     22 F          62.3405   83.4054   15.4069 F       1  UNL1       -0.2044
     23 C          61.6114   81.5999   14.6448 C.ar    1  UNL1        0.0294
     24 C          61.6509   80.6332   13.4985 C.ar    1  UNL1        0.0022
     25 C          62.5240   80.9128   12.3113 C.ar    1  UNL1        0.0037
     26 C          63.3576   82.1591   12.2703 C.ar    1  UNL1        0.0714
     27 C          64.2308   82.4387   11.0831 C.3     1  UNL1        0.4184
     28 F          65.1039   82.7183    9.8959 F       1  UNL1       -0.1659
     29 F          65.4490   82.1679   11.9153 F       1  UNL1       -0.1659
     30 F          63.0125   82.7096   10.2510 F       1  UNL1       -0.1659
     31 C          60.7012   87.2875   10.8076 C.3     1  UNL1        0.1337
     32 C          61.0642   87.5997    9.3861 C.3     1  UNL1        0.1000
     33 C          61.4227   86.4901    8.4425 C.ar    1  UNL1       -0.0061
     34 C          60.3978   85.9602    7.4839 C.ar    1  UNL1       -0.0029
     35 C          60.7563   84.8507    6.5404 C.ar    1  UNL1       -0.0003
     36 C          62.1397   84.2709    6.5554 C.ar    1  UNL1       -0.0000
     37 C          63.1646   84.8007    7.5141 C.ar    1  UNL1       -0.0003
     38 C          62.8061   85.9103    8.4576 C.ar    1  UNL1       -0.0029
     39 N          61.0687   89.0215    8.9081 N.3     1  UNL1       -0.2935
     40 H          61.7215   89.0670    8.1257 H       1  UNL1        0.1236
     41 C          59.7933   89.6614    8.4457 C.3     1  UNL1        0.0688
     42 C          59.0472   89.0881    7.2776 C.3     1  UNL1        0.0175
     43 C          59.3875   89.5239    5.8832 C.3     1  UNL1        0.0073
     44 C          59.5923   90.9788    5.5811 C.3     1  UNL1        0.0418
     45 C          58.5576   91.7360    4.8025 C.2     1  UNL1        0.0503
     46 O          57.1069   91.6094    5.1622 O.co2   1  UNL1       -0.5492
     47 O          58.9737   92.6199    3.6643 O.co2   1  UNL1       -0.5492
@<TRIPOS>UNITY_ATOM_ATTR
46 1
charge -1
@<TRIPOS>BOND
     1    17    18    1
     2    18    10    1
     3    10    11   ar
     4    11    12   ar
     5    12    13   ar
     6    13    14   ar
     7    14     1    1
     8     1     2   ar
     9     2     3    1
    10     2     4   ar
    11     4    19    1
    12    19    20    1
    13    20    21   ar
    14    21    22    1
    15    21    23   ar
    16    23    24   ar
    17    24    25   ar
    18    25    26   ar
    19    26    27    1
    20    27    28    1
    21    27    29    1
    22    27    30    1
    23     4     5   ar
    24     5     6    2
    25     5     7   ar
    26     7    31    1
    27    32    31    1
    28    32    39    1
    29    39    41    1
    30    41    42    1
    31    42    43    1
    32    43    44    1
    33    44    45    1
    34    45    46   ar
    35    45    47   ar
    36    32    33    1
    37    33    34   ar
    38    34    35   ar
    39    35    36   ar
    40    36    37   ar
    41    37    38   ar
    42     7     8   ar
    43     8     9    2
    44    14    15   ar
    45    15    16    1
    46    15    10   ar
    47     8     1   ar
    48    26    20   ar
    49    38    33   ar
    50    39    40    1
@<TRIPOS>MOLECULE
*****
 47 50 0 0 0
SMALL
GASTEIGER

@<TRIPOS>ATOM
      1 C          61.9281   87.5904   10.9176 C.ar    1  UNL1        0.0703
      2 C          62.2014   89.0154   11.2981 C.ar    1  UNL1        0.0465
      3 C          61.5775   90.1332   10.5162 C.3     1  UNL1        0.0503
      4 N          63.0985   89.3225   12.4604 N.ar    1  UNL1       -0.2806
      5 C          63.7223   88.2047   13.2422 C.ar    1  UNL1        0.3338
      6 O          64.3226   88.2872   14.0176 O.2     1  UNL1       -0.2462
      7 N          63.4490   86.7796   12.8617 N.ar    1  UNL1       -0.2470
      8 C          62.5520   86.4726   11.6994 C.ar    1  UNL1        0.2654
      9 O          62.2787   85.0475   11.3189 O.2     1  UNL1       -0.2668
     10 C          60.5395   85.9414    7.5855 C.ar    1  UNL1        0.1660
     11 C          59.2370   86.6689    7.4307 C.ar    1  UNL1        0.0392
     12 C          58.8315   87.7036    8.4381 C.ar    1  UNL1        0.0033
     13 C          59.7285   88.0108    9.6004 C.ar    1  UNL1        0.0026
     14 C          61.0310   87.2833    9.7552 C.ar    1  UNL1        0.0362
     15 C          61.4366   86.2485    8.7478 C.ar    1  UNL1        0.1739
     16 F          62.7392   85.5210    8.9027 F       1  UNL1       -0.2010
     17 C          62.3881   84.7554    6.1976 C.3     1  UNL1        0.2526
     18 O          60.9451   84.9067    6.5781 O.3     1  UNL1       -0.4692
     19 C          63.3717   90.7475   12.8409 C.3     1  UNL1        0.1391
     20 C          64.5376   91.4741   12.2387 C.ar    1  UNL1        0.0319
     21 C          64.5583   91.7708   10.7685 C.ar    1  UNL1        0.1379
     22 F          63.8674   91.5380   10.1075 F       1  UNL1       -0.2044
     23 C          65.7243   92.4975   10.1664 C.ar    1  UNL1        0.0294
     24 C          66.8695   92.9275   11.0345 C.ar    1  UNL1        0.0022
     25 C          66.8487   92.6308   12.5047 C.ar    1  UNL1        0.0037
     26 C          65.6828   91.9042   13.1068 C.ar    1  UNL1        0.0714
     27 C          65.6621   91.6075   14.5771 C.3     1  UNL1        0.4184
     28 F          65.6414   91.3109   16.0473 F       1  UNL1       -0.1659
     29 F          65.2609   93.0254   14.8575 F       1  UNL1       -0.1659
     30 F          66.0633   90.1896   14.2966 F       1  UNL1       -0.1659
     31 C          64.0728   85.6618   13.6435 C.3     1  UNL1        0.1337
     32 C          63.2057   84.7073   14.4096 C.3     1  UNL1        0.1000
     33 C          63.0253   83.3005   13.9211 C.ar    1  UNL1       -0.0061
     34 C          61.9473   82.4363   14.5050 C.ar    1  UNL1       -0.0029
     35 C          61.7669   81.0296   14.0166 C.ar    1  UNL1       -0.0003
     36 C          62.6645   80.4871   12.9443 C.ar    1  UNL1       -0.0000
     37 C          63.7427   81.3513   12.3604 C.ar    1  UNL1       -0.0003
     38 C          63.9230   82.7580   12.8488 C.ar    1  UNL1       -0.0029
     39 N          62.5189   85.1595   15.6641 N.3     1  UNL1       -0.2935
     40 H          61.8714   84.4173   15.9292 H       1  UNL1        0.1236
     41 C          63.3264   85.4862   16.8852 C.3     1  UNL1        0.0688
     42 C          62.6889   86.2088   18.0347 C.3     1  UNL1        0.0175
     43 C          62.7195   87.7076   18.0881 C.3     1  UNL1        0.0073
     44 C          63.3219   88.4863   16.9565 C.3     1  UNL1        0.0418
     45 C          62.6224   89.7032   16.4273 C.2     1  UNL1        0.0503
     46 O          63.1102   91.0712   16.8023 O.co2   1  UNL1       -0.5492
     47 O          61.4351   89.5521   15.5233 O.co2   1  UNL1       -0.5492
@<TRIPOS>UNITY_ATOM_ATTR
46 1
charge -1
@<TRIPOS>BOND
     1    17    18    1
     2    18    10    1
     3    10    11   ar
     4    11    12   ar
     5    12    13   ar
     6    13    14   ar
     7    14     1    1
     8     1     2   ar
     9     2     3    1
    10     2     4   ar
    11     4    19    1
    12    19    20    1
    13    20    21   ar
    14    21    22    1
    15    21    23   ar
    16    23    24   ar
    17    24    25   ar
    18    25    26   ar
    19    26    27    1
    20    27    28    1
    21    27    29    1
    22    27    30    1
    23     4     5   ar
    24     5     6    2
    25     5     7   ar
    26     7    31    1
    27    32    31    1
    28    32    39    1
    29    39    41    1
    30    41    42    1
    31    42    43    1
    32    43    44    1
    33    44    45    1
    34    45    46   ar
    35    45    47   ar
    36    32    33    1
    37    33    34   ar
    38    34    35   ar
    39    35    36   ar
    40    36    37   ar
    41    37    38   ar
    42     7     8   ar
    43     8     9    2
    44    14    15   ar
    45    15    16    1
    46    15    10   ar
    47     8     1   ar
    48    26    20   ar
    49    38    33   ar
    50    39    40    1
@<TRIPOS>MOLECULE
*****
 47 50 0 0 0
SMALL
GASTEIGER

@<TRIPOS>ATOM
      1 C          61.6886   87.6522   10.9298 C.ar    1  UNL1        0.0703
      2 C          62.4156   86.3606   11.1605 C.ar    1  UNL1        0.0465
      3 C          62.2202   85.2111   10.2169 C.3     1  UNL1        0.0503
      4 N          63.3380   86.2185   12.3349 N.ar    1  UNL1       -0.2806
      5 C          63.5333   87.3680   13.2785 C.ar    1  UNL1        0.3338
      6 O          64.1094   87.3882   14.0762 O.2     1  UNL1       -0.2462
      7 N          62.8063   88.6596   13.0478 N.ar    1  UNL1       -0.2470
      8 C          61.8840   88.8017   11.8734 C.ar    1  UNL1        0.2654
      9 O          61.1570   90.0934   11.6427 O.2     1  UNL1       -0.2668
     10 C          59.9266   89.1515    7.7053 C.ar    1  UNL1        0.1660
     11 C          58.9217   88.0787    7.4068 C.ar    1  UNL1        0.0392
     12 C          58.8391   86.8637    8.2826 C.ar    1  UNL1        0.0033
     13 C          59.7614   86.7215    9.4569 C.ar    1  UNL1        0.0026
     14 C          60.7663   87.7943    9.7554 C.ar    1  UNL1        0.0362
     15 C          60.8489   89.0093    8.8796 C.ar    1  UNL1        0.1739
     16 F          61.8539   90.0822    9.1782 F       1  UNL1       -0.2010
     17 C          59.0868   90.5086    5.6552 C.3     1  UNL1        0.2526
     18 O          60.0092   90.3664    6.8295 O.3     1  UNL1       -0.4692
     19 C          64.0649   84.9269   12.5656 C.3     1  UNL1        0.1391
     20 C          63.3217   83.7293   13.0788 C.ar    1  UNL1        0.0319
     21 C          62.5913   83.8037   14.3868 C.ar    1  UNL1        0.1379
     22 F          62.5316   84.5801   14.9885 F       1  UNL1       -0.2044
     23 C          61.8481   82.6060   14.8999 C.ar    1  UNL1        0.0294
     24 C          61.8353   81.3340   14.1051 C.ar    1  UNL1        0.0022
     25 C          62.5657   81.2596   12.7970 C.ar    1  UNL1        0.0037
     26 C          63.3089   82.4572   12.2839 C.ar    1  UNL1        0.0714
     27 C          64.0393   82.3828   10.9758 C.3     1  UNL1        0.4184
     28 F          64.7697   82.3085    9.6678 F       1  UNL1       -0.1659
     29 F          62.9444   81.5258   10.4132 F       1  UNL1       -0.1659
     30 F          65.1342   83.2399   11.5385 F       1  UNL1       -0.1659
     31 C          63.0017   89.8092   13.9914 C.3     1  UNL1        0.1337
     32 C          63.8060   91.0012   13.5649 C.3     1  UNL1        0.1000
     33 C          64.9878   91.4386   14.3786 C.ar    1  UNL1       -0.0061
     34 C          66.3768   91.2533   13.8434 C.ar    1  UNL1       -0.0029
     35 C          67.5586   91.6907   14.6571 C.ar    1  UNL1       -0.0003
     36 C          67.3514   92.3134   16.0059 C.ar    1  UNL1       -0.0000
     37 C          65.9624   92.4988   16.5411 C.ar    1  UNL1       -0.0003
     38 C          64.7806   92.0614   15.7274 C.ar    1  UNL1       -0.0029
     39 N          63.4286   91.7560   12.3247 N.3     1  UNL1       -0.2935
     40 H          63.3991   92.7434   12.5785 H       1  UNL1        0.1236
     41 C          64.2800   91.6504   11.0943 C.3     1  UNL1        0.0688
     42 C          65.0989   92.8244   10.6460 C.3     1  UNL1        0.0175
     43 C          66.5245   92.9589   11.0927 C.3     1  UNL1        0.0073
     44 C          67.6115   92.2273   10.3625 C.3     1  UNL1        0.0418
     45 C          68.3677   92.9112    9.2623 C.2     1  UNL1        0.0503
     46 O          68.6278   94.3867    9.3357 O.co2   1  UNL1       -0.5492
     47 O          68.8639   92.1197    8.0888 O.co2   1  UNL1       -0.5492
@<TRIPOS>UNITY_ATOM_ATTR
46 1
charge -1
@<TRIPOS>BOND
     1    17    18    1
     2    18    10    1
     3    10    11   ar
     4    11    12   ar
     5    12    13   ar
     6    13    14   ar
     7    14     1    1
     8     1     2   ar
     9     2     3    1
    10     2     4   ar
    11     4    19    1
    12    19    20    1
    13    20    21   ar
    14    21    22    1
    15    21    23   ar
    16    23    24   ar
    17    24    25   ar
    18    25    26   ar
    19    26    27    1
    20    27    28    1
    21    27    29    1
    22    27    30    1
    23     4     5   ar
    24     5     6    2
    25     5     7   ar
    26     7    31    1
    27    32    31    1
    28    32    39    1
    29    39    41    1
    30    41    42    1
    31    42    43    1
    32    43    44    1
    33    44    45    1
    34    45    46   ar
    35    45    47   ar
    36    32    33    1
    37    33    34   ar
    38    34    35   ar
    39    35    36   ar
    40    36    37   ar
    41    37    38   ar
    42     7     8   ar
    43     8     9    2
    44    14    15   ar
    45    15    16    1
    46    15    10   ar
    47     8     1   ar
    48    26    20   ar
    49    38    33   ar
    50    39    40    1
@<TRIPOS>MOLECULE
*****
 47 50 0 0 0
SMALL
GASTEIGER

@<TRIPOS>ATOM
      1 C          61.8141   87.7523   11.0974 C.ar    1  UNL1        0.0703
      2 C          62.5502   86.4828   11.4081 C.ar    1  UNL1        0.0465
      3 C          62.3631   85.2752   10.5383 C.3     1  UNL1        0.0503
      4 N          63.4736   86.4210   12.5887 N.ar    1  UNL1       -0.2806
      5 C          63.6607   87.6286   13.4585 C.ar    1  UNL1        0.3338
      6 O          64.2366   87.7028   14.2531 O.2     1  UNL1       -0.2462
      7 N          62.9245   88.8981   13.1478 N.ar    1  UNL1       -0.2470
      8 C          62.0013   88.9599   11.9672 C.ar    1  UNL1        0.2654
      9 O          61.2651   90.2294   11.6565 O.2     1  UNL1       -0.2668
     10 C          60.0291   89.0434    7.7964 C.ar    1  UNL1        0.1660
     11 C          59.0442   87.9379    7.5558 C.ar    1  UNL1        0.0392
     12 C          58.9826   86.7706    8.4957 C.ar    1  UNL1        0.0033
     13 C          59.9059   86.7087    9.6762 C.ar    1  UNL1        0.0026
     14 C          60.8908   87.8141    9.9168 C.ar    1  UNL1        0.0362
     15 C          60.9523   88.9815    8.9769 C.ar    1  UNL1        0.1739
     16 F          61.9373   90.0870    9.2176 F       1  UNL1       -0.2010
     17 C          59.0174   90.4014    5.8261 C.3     1  UNL1        0.2526
     18 O          60.0907   90.2108    6.8565 O.3     1  UNL1       -0.4692
     19 C          64.2097   85.1516   12.8994 C.3     1  UNL1        0.1391
     20 C          63.4503   83.8729   13.0950 C.ar    1  UNL1        0.0319
     21 C          63.4126   82.8480   12.0004 C.ar    1  UNL1        0.1379
     22 F          63.8457   82.9069   11.1187 F       1  UNL1       -0.2044
     23 C          62.6531   81.5693   12.1961 C.ar    1  UNL1        0.0294
     24 C          61.9314   81.3156   13.4863 C.ar    1  UNL1        0.0022
     25 C          61.9692   82.3405   14.5809 C.ar    1  UNL1        0.0037
     26 C          62.7286   83.6191   14.3853 C.ar    1  UNL1        0.0714
     27 C          62.7663   84.6440   15.4799 C.3     1  UNL1        0.4184
     28 F          62.8040   85.6689   16.5745 F       1  UNL1       -0.1659
     29 F          64.2293   84.3787   15.6779 F       1  UNL1       -0.1659
     30 F          61.3033   84.9093   15.2819 F       1  UNL1       -0.1659
     31 C          63.1117   90.1058   14.0176 C.3     1  UNL1        0.1337
     32 C          63.9860   91.2339   13.5565 C.3     1  UNL1        0.1000
     33 C          65.2157   91.5964   14.3353 C.ar    1  UNL1       -0.0061
     34 C          65.0882   92.1500   15.7235 C.ar    1  UNL1       -0.0029
     35 C          66.3179   92.5125   16.5023 C.ar    1  UNL1       -0.0003
     36 C          67.6751   92.3213   15.8928 C.ar    1  UNL1       -0.0000
     37 C          67.8026   91.7677   14.5045 C.ar    1  UNL1       -0.0003
     38 C          66.5730   91.4052   13.7258 C.ar    1  UNL1       -0.0029
     39 N          63.6307   91.9997   12.3165 N.3     1  UNL1       -0.2935
     40 H          63.7957   92.9852   12.5217 H       1  UNL1        0.1236
     41 C          64.3329   91.7029   11.0247 C.3     1  UNL1        0.0688
     42 C          65.4327   92.6030   10.5449 C.3     1  UNL1        0.0175
     43 C          65.7596   93.8566   11.3011 C.3     1  UNL1        0.0073
     44 C          66.5792   94.9320   10.6518 C.3     1  UNL1        0.0418
     45 C          67.4510   94.6038    9.4761 C.2     1  UNL1        0.0503
     46 O          68.7518   93.8863    9.6840 O.co2   1  UNL1       -0.5492
     47 O          67.0220   94.9931    8.0924 O.co2   1  UNL1       -0.5492
@<TRIPOS>UNITY_ATOM_ATTR
46 1
charge -1
@<TRIPOS>BOND
     1    17    18    1
     2    18    10    1
     3    10    11   ar
     4    11    12   ar
     5    12    13   ar
     6    13    14   ar
     7    14     1    1
     8     1     2   ar
     9     2     3    1
    10     2     4   ar
    11     4    19    1
    12    19    20    1
    13    20    21   ar
    14    21    22    1
    15    21    23   ar
    16    23    24   ar
    17    24    25   ar
    18    25    26   ar
    19    26    27    1
    20    27    28    1
    21    27    29    1
    22    27    30    1
    23     4     5   ar
    24     5     6    2
    25     5     7   ar
    26     7    31    1
    27    32    31    1
    28    32    39    1
    29    39    41    1
    30    41    42    1
    31    42    43    1
    32    43    44    1
    33    44    45    1
    34    45    46   ar
    35    45    47   ar
    36    32    33    1
    37    33    34   ar
    38    34    35   ar
    39    35    36   ar
    40    36    37   ar
    41    37    38   ar
    42     7     8   ar
    43     8     9    2
    44    14    15   ar
    45    15    16    1
    46    15    10   ar
    47     8     1   ar
    48    26    20   ar
    49    38    33   ar
    50    39    40    1
@<TRIPOS>MOLECULE
*****
 47 50 0 0 0
SMALL
GASTEIGER

@<TRIPOS>ATOM
      1 C          62.1522   86.9815   10.9382 C.ar    1  UNL1        0.0703
      2 C          62.8621   85.8980   11.6945 C.ar    1  UNL1        0.0465
      3 C          62.8173   84.4835   11.1974 C.3     1  UNL1        0.0503
      4 N          63.6168   86.2290   12.9479 N.ar    1  UNL1       -0.2806
      5 C          63.6616   87.6435   13.4449 C.ar    1  UNL1        0.3338
      6 O          64.1223   87.9744   14.2491 O.2     1  UNL1       -0.2462
      7 N          62.9517   88.7271   12.6886 N.ar    1  UNL1       -0.2470
      8 C          62.1970   88.3961   11.4353 C.ar    1  UNL1        0.2654
      9 O          61.4871   89.4797   10.6790 O.2     1  UNL1       -0.2668
     10 C          61.3367   85.6191    7.3011 C.ar    1  UNL1        0.1660
     11 C          59.8881   85.9886    7.1782 C.ar    1  UNL1        0.0392
     12 C          59.1943   86.6891    8.3086 C.ar    1  UNL1        0.0033
     13 C          59.9489   87.0201    9.5619 C.ar    1  UNL1        0.0026
     14 C          61.3975   86.6506    9.6848 C.ar    1  UNL1        0.0362
     15 C          62.0913   85.9501    8.5544 C.ar    1  UNL1        0.1739
     16 F          63.5400   85.5806    8.6774 F       1  UNL1       -0.2010
     17 C          61.3103   83.8602    5.3892 C.3     1  UNL1        0.2526
     18 O          62.0306   84.9187    6.1707 O.3     1  UNL1       -0.4692
     19 C          64.3267   85.1454   13.7041 C.3     1  UNL1        0.1391
     20 C          63.7382   83.7673   13.7695 C.ar    1  UNL1        0.0319
     21 C          64.2088   82.7050   12.8208 C.ar    1  UNL1        0.1379
     22 F          64.8930   82.7980   12.1196 F       1  UNL1       -0.2044
     23 C          63.6202   81.3268   12.8862 C.ar    1  UNL1        0.0294
     24 C          62.5610   81.0110   13.9003 C.ar    1  UNL1        0.0022
     25 C          62.0904   82.0733   14.8490 C.ar    1  UNL1        0.0037
     26 C          62.6790   83.4514   14.7836 C.ar    1  UNL1        0.0714
     27 C          62.2084   84.5137   15.7323 C.3     1  UNL1        0.4184
     28 F          61.7377   85.5760   16.6811 F       1  UNL1       -0.1659
     29 F          63.4794   84.3762   16.5168 F       1  UNL1       -0.1659
     30 F          60.9373   84.6512   14.9478 F       1  UNL1       -0.1659
     31 C          62.9965   90.1416   13.1857 C.3     1  UNL1        0.1337
     32 C          64.3154   90.7891   13.4876 C.3     1  UNL1        0.1000
     33 C          64.9942   91.6292   12.4468 C.ar    1  UNL1       -0.0061
     34 C          64.2876   91.9486   11.1628 C.ar    1  UNL1       -0.0029
     35 C          64.9664   92.7887   10.1220 C.ar    1  UNL1       -0.0003
     36 C          66.3519   93.3094   10.3651 C.ar    1  UNL1       -0.0000
     37 C          67.0587   92.9900   11.6491 C.ar    1  UNL1       -0.0003
     38 C          66.3799   92.1499   12.6899 C.ar    1  UNL1       -0.0029
     39 N          64.9555   90.5964   14.8305 N.3     1  UNL1       -0.2935
     40 H          65.9174   90.9258   14.7481 H       1  UNL1        0.1236
     41 C          64.3722   91.2616   16.0418 C.3     1  UNL1        0.0688
     42 C          65.1538   92.3161   16.7677 C.3     1  UNL1        0.0175
     43 C          66.3066   92.9953   16.0897 C.3     1  UNL1        0.0073
     44 C          67.6857   92.4144   16.1932 C.3     1  UNL1        0.0418
     45 C          68.8430   93.1086   15.5384 C.2     1  UNL1        0.0503
     46 O          69.3932   94.3716   16.1318 O.co2   1  UNL1       -0.5492
     47 O          69.4502   92.5397   14.2904 O.co2   1  UNL1       -0.5492
@<TRIPOS>UNITY_ATOM_ATTR
46 1
charge -1
@<TRIPOS>BOND
     1    17    18    1
     2    18    10    1
     3    10    11   ar
     4    11    12   ar
     5    12    13   ar
     6    13    14   ar
     7    14     1    1
     8     1     2   ar
     9     2     3    1
    10     2     4   ar
    11     4    19    1
    12    19    20    1
    13    20    21   ar
    14    21    22    1
    15    21    23   ar
    16    23    24   ar
    17    24    25   ar
    18    25    26   ar
    19    26    27    1
    20    27    28    1
    21    27    29    1
    22    27    30    1
    23     4     5   ar
    24     5     6    2
    25     5     7   ar
    26     7    31    1
    27    32    31    1
    28    32    39    1
    29    39    41    1
    30    41    42    1
    31    42    43    1
    32    43    44    1
    33    44    45    1
    34    45    46   ar
    35    45    47   ar
    36    32    33    1
    37    33    34   ar
    38    34    35   ar
    39    35    36   ar
    40    36    37   ar
    41    37    38   ar
    42     7     8   ar
    43     8     9    2
    44    14    15   ar
    45    15    16    1
    46    15    10   ar
    47     8     1   ar
    48    26    20   ar
    49    38    33   ar
    50    39    40    1
@<TRIPOS>MOLECULE
*****
 47 50 0 0 0
SMALL
GASTEIGER

@<TRIPOS>ATOM
      1 C          63.0196   87.3560   13.0521 C.ar    1  UNL1        0.0703
      2 C          63.6382   88.6705   13.4252 C.ar    1  UNL1        0.0465
      3 C          64.7766   88.7136   14.4011 C.3     1  UNL1        0.0503
      4 N          63.1185   89.9421   12.8225 N.ar    1  UNL1       -0.2806
      5 C          61.9802   89.8990   11.8466 C.ar    1  UNL1        0.3338
      6 O          61.5606   90.6642   11.3918 O.2     1  UNL1       -0.2462
      7 N          61.3615   88.5843   11.4735 N.ar    1  UNL1       -0.2470
      8 C          61.8812   87.3129   12.0763 C.ar    1  UNL1        0.2654
      9 O          61.2626   85.9983   11.7031 O.2     1  UNL1       -0.2668
     10 C          64.2891   83.6111   13.3901 C.ar    1  UNL1        0.1660
     11 C          64.5786   83.5416   14.8602 C.ar    1  UNL1        0.0392
     12 C          64.3484   84.7435   15.7277 C.ar    1  UNL1        0.0033
     13 C          63.8288   86.0149   15.1250 C.ar    1  UNL1        0.0026
     14 C          63.5393   86.0845   13.6549 C.ar    1  UNL1        0.0362
     15 C          63.7694   84.8826   12.7874 C.ar    1  UNL1        0.1739
     16 F          63.4799   84.9522   11.3172 F       1  UNL1       -0.2010
     17 C          63.4973   81.3124   12.4743 C.3     1  UNL1        0.2526
     18 O          64.5193   82.4092   12.5226 O.3     1  UNL1       -0.4692
     19 C          63.7371   91.2566   13.1956 C.3     1  UNL1        0.1391
     20 C          64.8809   91.8019   12.3929 C.ar    1  UNL1        0.0319
     21 C          64.7496   91.9516   10.9061 C.ar    1  UNL1        0.1379
     22 F          63.9662   91.7261   10.3550 F       1  UNL1       -0.2044
     23 C          65.8934   92.4970   10.1034 C.ar    1  UNL1        0.0294
     24 C          67.1684   92.8927   10.7874 C.ar    1  UNL1        0.0022
     25 C          67.2996   92.7429   12.2741 C.ar    1  UNL1        0.0037
     26 C          66.1559   92.1976   13.0769 C.ar    1  UNL1        0.0714
     27 C          66.2872   92.0479   14.5636 C.3     1  UNL1        0.4184
     28 F          66.4184   91.8982   16.0503 F       1  UNL1       -0.1659
     29 F          65.7690   93.4432   14.7498 F       1  UNL1       -0.1659
     30 F          66.8053   90.6526   14.3774 F       1  UNL1       -0.1659
     31 C          60.2232   88.5412   10.4977 C.3     1  UNL1        0.1337
     32 C          60.4994   88.4327    9.0274 C.3     1  UNL1        0.1000
     33 C          61.0717   87.1661    8.4632 C.ar    1  UNL1       -0.0061
     34 C          60.2377   86.3009    7.5655 C.ar    1  UNL1       -0.0029
     35 C          60.8100   85.0343    7.0014 C.ar    1  UNL1       -0.0003
     36 C          62.2162   84.6328    7.3350 C.ar    1  UNL1       -0.0000
     37 C          63.0502   85.4980    8.2329 C.ar    1  UNL1       -0.0003
     38 C          62.4780   86.7646    8.7970 C.ar    1  UNL1       -0.0029
     39 N          60.2035   89.5908    8.1211 N.3     1  UNL1       -0.2935
     40 H          61.0934   89.8846    7.7185 H       1  UNL1        0.1236
     41 C          59.2458   89.4236    6.9788 C.3     1  UNL1        0.0688
     42 C          59.5130   90.1061    5.6701 C.3     1  UNL1        0.0175
     43 C          58.5613   91.1468    5.1589 C.3     1  UNL1        0.0073
     44 C          59.0783   92.4838    4.7175 C.3     1  UNL1        0.0418
     45 C          59.9380   92.5885    3.4927 C.2     1  UNL1        0.0503
     46 O          61.3555   92.0989    3.5273 O.co2   1  UNL1       -0.5492
     47 O          59.3803   93.1827    2.2334 O.co2   1  UNL1       -0.5492
@<TRIPOS>UNITY_ATOM_ATTR
46 1
charge -1
@<TRIPOS>BOND
     1    17    18    1
     2    18    10    1
     3    10    11   ar
     4    11    12   ar
     5    12    13   ar
     6    13    14   ar
     7    14     1    1
     8     1     2   ar
     9     2     3    1
    10     2     4   ar
    11     4    19    1
    12    19    20    1
    13    20    21   ar
    14    21    22    1
    15    21    23   ar
    16    23    24   ar
    17    24    25   ar
    18    25    26   ar
    19    26    27    1
    20    27    28    1
    21    27    29    1
    22    27    30    1
    23     4     5   ar
    24     5     6    2
    25     5     7   ar
    26     7    31    1
    27    32    31    1
    28    32    39    1
    29    39    41    1
    30    41    42    1
    31    42    43    1
    32    43    44    1
    33    44    45    1
    34    45    46   ar
    35    45    47   ar
    36    32    33    1
    37    33    34   ar
    38    34    35   ar
    39    35    36   ar
    40    36    37   ar
    41    37    38   ar
    42     7     8   ar
    43     8     9    2
    44    14    15   ar
    45    15    16    1
    46    15    10   ar
    47     8     1   ar
    48    26    20   ar
    49    38    33   ar
    50    39    40    1
