@<TRIPOS>MOLECULE
*****
 28 30 0 0 0
SMALL
GASTEIGER

@<TRIPOS>ATOM
      1 C          64.2641   90.4894   14.4676 C.ar    1  UNL1        0.2136
      2 O          65.6770   90.9832   14.3686 O.2     1  UNL1       -0.4474
      3 C          65.8470   91.6364   13.0291 C.ar    1  UNL1        0.1498
      4 C          67.0238   92.3016   12.3789 C.ar    1  UNL1        0.0582
      5 C          66.8926   92.8767   10.9998 C.ar    1  UNL1        0.1020
      6 N          65.5848   92.7866   10.2708 N.ar    1  UNL1       -0.2421
      7 C          64.4080   92.1214   10.9210 C.ar    1  UNL1        0.1032
      8 C          64.5392   91.5463   12.3001 C.ar    1  UNL1        0.0702
      9 C          63.5609   90.8374   13.1892 C.ar    1  UNL1        0.0925
     10 O          63.1821   90.5519   16.8288 O.2     1  UNL1       -0.2646
     11 C          63.6604   89.7734   15.6393 C.2     1  UNL1        0.3039
     12 N          63.5349   88.2788   15.6214 N.am    1  UNL1       -0.1871
     13 H          63.8488   87.7678   14.8406 H       1  UNL1        0.1829
     14 O          62.9312   87.5627   16.7930 O.3     1  UNL1       -0.2634
     15 C          63.1125   86.0810   16.9411 C.3     1  UNL1        0.2026
     16 C          63.6919   85.2799   15.8130 C.3     1  UNL1        0.1719
     17 O          65.0547   85.6108   15.2807 O.3     1  UNL1       -0.3794
     18 H          65.0353   86.4868   14.8645 H       1  UNL1        0.2105
     19 N          62.1305   90.5305   12.8579 N.pl3   1  UNL1       -0.3081
     20 H          61.4044   90.9963   13.3325 H       1  UNL1        0.1524
     21 C          61.8062   89.5139   11.8038 C.ar    1  UNL1        0.0762
     22 C          62.6897   88.3156   11.6204 C.ar    1  UNL1        0.0173
     23 C          62.3655   87.2989   10.5662 C.ar    1  UNL1        0.0072
     24 C          61.1577   87.4806    9.6954 C.ar    1  UNL1        0.0324
     25 I          60.8335   86.4640    8.6412 I       1  UNL1       -0.0424
     26 C          60.2742   88.6789    9.8787 C.ar    1  UNL1        0.0367
     27 C          60.5985   89.6955   10.9329 C.ar    1  UNL1        0.1538
     28 F          59.7150   90.8938   11.1162 F       1  UNL1       -0.2028
@<TRIPOS>BOND
     1    10    11    2
     2    11    12   am
     3    12    14    1
     4    14    15    1
     5    15    16    1
     6    16    17    1
     7    11     1    1
     8     1     2   ar
     9     2     3   ar
    10     3     4   ar
    11     4     5   ar
    12     5     6   ar
    13     6     7   ar
    14     7     8   ar
    15     8     9   ar
    16     9    19    1
    17    19    21    1
    18    21    22   ar
    19    22    23   ar
    20    23    24   ar
    21    24    25    1
    22    24    26   ar
    23    26    27   ar
    24    27    28    1
    25     9     1   ar
    26    27    21   ar
    27     8     3   ar
    28    12    13    1
    29    17    18    1
    30    19    20    1
@<TRIPOS>MOLECULE
*****
 28 30 0 0 0
SMALL
GASTEIGER

@<TRIPOS>ATOM
      1 C          62.2161   86.3074   11.2359 C.ar    1  UNL1        0.2136
      2 O          61.8146   85.4988   10.0380 O.2     1  UNL1       -0.4474
      3 C          60.9380   86.3554    9.1732 C.ar    1  UNL1        0.1498
      4 C          60.2494   86.0899    7.8673 C.ar    1  UNL1        0.0582
      5 C          59.4205   87.1624    7.2250 C.ar    1  UNL1        0.1020
      6 N          59.2802   88.5004    7.8884 N.ar    1  UNL1       -0.2421
      7 C          59.9689   88.7659    9.1943 C.ar    1  UNL1        0.1032
      8 C          60.7977   87.6934    9.8367 C.ar    1  UNL1        0.0702
      9 C          61.5876   87.6637   11.1115 C.ar    1  UNL1        0.0925
     10 O          63.5128   86.8036   13.4319 O.2     1  UNL1       -0.2646
     11 C          63.0922   85.8414   12.3608 C.2     1  UNL1        0.3039
     12 N          63.5478   84.4133   12.4145 N.am    1  UNL1       -0.1871
     13 H          63.2718   83.7818   11.7115 H       1  UNL1        0.1829
     14 O          64.4240   83.9474   13.5393 O.3     1  UNL1       -0.2634
     15 C          63.8544   83.0833   14.6252 C.3     1  UNL1        0.2026
     16 C          62.4951   83.3812   15.1852 C.3     1  UNL1        0.1719
     17 O          62.0106   84.7985   15.2644 O.3     1  UNL1       -0.3794
     18 H          62.5578   85.2925   15.8949 H       1  UNL1        0.2105
     19 N          61.7250   88.7922   12.0901 N.pl3   1  UNL1       -0.3081
     20 H          61.1536   88.8212   12.8913 H       1  UNL1        0.1524
     21 C          62.7328   89.8764   11.8480 C.ar    1  UNL1        0.0762
     22 C          62.8585   90.4931   10.4863 C.ar    1  UNL1        0.0173
     23 C          63.8664   91.5774   10.2442 C.ar    1  UNL1        0.0072
     24 C          64.7484   92.0450   11.3637 C.ar    1  UNL1        0.0324
     25 I          65.7563   93.1293   11.1216 I       1  UNL1       -0.0424
     26 C          64.6227   91.4283   12.7253 C.ar    1  UNL1        0.0367
     27 C          63.6149   90.3441   12.9674 C.ar    1  UNL1        0.1538
     28 F          63.4892   89.7275   14.3290 F       1  UNL1       -0.2028
@<TRIPOS>BOND
     1    10    11    2
     2    11    12   am
     3    12    14    1
     4    14    15    1
     5    15    16    1
     6    16    17    1
     7    11     1    1
     8     1     2   ar
     9     2     3   ar
    10     3     4   ar
    11     4     5   ar
    12     5     6   ar
    13     6     7   ar
    14     7     8   ar
    15     8     9   ar
    16     9    19    1
    17    19    21    1
    18    21    22   ar
    19    22    23   ar
    20    23    24   ar
    21    24    25    1
    22    24    26   ar
    23    26    27   ar
    24    27    28    1
    25     9     1   ar
    26    27    21   ar
    27     8     3   ar
    28    12    13    1
    29    17    18    1
    30    19    20    1
@<TRIPOS>MOLECULE
*****
 28 30 0 0 0
SMALL
GASTEIGER

@<TRIPOS>ATOM
      1 C          62.5721   84.6648   15.2346 C.ar    1  UNL1        0.2136
      2 O          62.1144   83.2815   15.5909 O.2     1  UNL1       -0.4474
      3 C          62.3461   82.3961   14.4024 C.ar    1  UNL1        0.1498
      4 C          62.0876   80.9365   14.1726 C.ar    1  UNL1        0.0582
      5 C          62.4299   80.3131   12.8520 C.ar    1  UNL1        0.1020
      6 N          63.0307   81.1493   11.7611 N.ar    1  UNL1       -0.2421
      7 C          63.2892   82.6088   11.9910 C.ar    1  UNL1        0.1032
      8 C          62.9469   83.2322   13.3116 C.ar    1  UNL1        0.0702
      9 C          63.0866   84.6343   13.8259 C.ar    1  UNL1        0.0925
     10 O          61.5026   85.9461   17.2256 O.2     1  UNL1       -0.2646
     11 C          62.5237   85.8675   16.1298 C.2     1  UNL1        0.3039
     12 N          63.4965   86.9914   15.9290 N.am    1  UNL1       -0.1871
     13 H          64.1667   86.9398   15.2098 H       1  UNL1        0.1829
     14 O          63.4481   88.1940   16.8242 O.3     1  UNL1       -0.2634
     15 C          62.8854   89.4872   16.3132 C.3     1  UNL1        0.2026
     16 C          63.8031   90.6290   15.9905 C.3     1  UNL1        0.1719
     17 O          63.5646   91.9784   16.6005 O.3     1  UNL1       -0.3794
     18 H          62.7298   92.3416   16.2658 H       1  UNL1        0.2105
     19 N          63.6431   85.8012   13.0651 N.pl3   1  UNL1       -0.3081
     20 H          64.5678   86.0980   13.2262 H       1  UNL1        0.1524
     21 C          62.7907   86.5157   12.0588 C.ar    1  UNL1        0.0762
     22 C          61.8515   85.7386   11.1846 C.ar    1  UNL1        0.0173
     23 C          60.9991   86.4532   10.1782 C.ar    1  UNL1        0.0072
     24 C          61.0859   87.9448   10.0460 C.ar    1  UNL1        0.0324
     25 I          60.2334   88.6594    9.0396 I       1  UNL1       -0.0424
     26 C          62.0250   88.7219   10.9201 C.ar    1  UNL1        0.0367
     27 C          62.8774   88.0074   11.9265 C.ar    1  UNL1        0.1538
     28 F          63.8166   88.7845   12.8006 F       1  UNL1       -0.2028
@<TRIPOS>BOND
     1    10    11    2
     2    11    12   am
     3    12    14    1
     4    14    15    1
     5    15    16    1
     6    16    17    1
     7    11     1    1
     8     1     2   ar
     9     2     3   ar
    10     3     4   ar
    11     4     5   ar
    12     5     6   ar
    13     6     7   ar
    14     7     8   ar
    15     8     9   ar
    16     9    19    1
    17    19    21    1
    18    21    22   ar
    19    22    23   ar
    20    23    24   ar
    21    24    25    1
    22    24    26   ar
    23    26    27   ar
    24    27    28    1
    25     9     1   ar
    26    27    21   ar
    27     8     3   ar
    28    12    13    1
    29    17    18    1
    30    19    20    1
@<TRIPOS>MOLECULE
*****
 28 30 0 0 0
SMALL
GASTEIGER

@<TRIPOS>ATOM
      1 C          62.9027   91.0041   11.2360 C.ar    1  UNL1        0.2136
      2 O          63.7006   91.6830   10.1625 O.2     1  UNL1       -0.4474
      3 C          64.8867   92.3354   10.8088 C.ar    1  UNL1        0.1498
      4 C          66.0173   93.1448   10.2464 C.ar    1  UNL1        0.0582
      5 C          67.0831   93.6785   11.1570 C.ar    1  UNL1        0.1020
      6 N          67.0182   93.4029   12.6300 N.ar    1  UNL1       -0.2421
      7 C          65.8875   92.5934   13.1924 C.ar    1  UNL1        0.1032
      8 C          64.8218   92.0597   12.2818 C.ar    1  UNL1        0.0702
      9 C          63.5956   91.2369   12.5458 C.ar    1  UNL1        0.0925
     10 O          60.8384   89.7724   12.2215 O.2     1  UNL1       -0.2646
     11 C          61.6346   90.2286   11.0350 C.2     1  UNL1        0.3039
     12 N          61.1627   89.9093    9.6474 N.am    1  UNL1       -0.1871
     13 H          61.6852   90.2088    8.8686 H       1  UNL1        0.1829
     14 O          59.8945   89.1338    9.4464 O.3     1  UNL1       -0.2634
     15 C          59.9382   87.6378    9.3457 C.3     1  UNL1        0.2026
     16 C          60.9549   86.8627   10.1303 C.3     1  UNL1        0.1719
     17 O          60.8424   86.7754   11.6235 O.3     1  UNL1       -0.3794
     18 H          60.9756   87.6551   12.0098 H       1  UNL1        0.2105
     19 N          63.1420   90.7351   13.8846 N.pl3   1  UNL1       -0.3081
     20 H          62.6564   91.3345   14.4962 H       1  UNL1        0.1524
     21 C          63.4284   89.3202   14.2916 C.ar    1  UNL1        0.0762
     22 C          63.7251   88.2848   13.2475 C.ar    1  UNL1        0.0173
     23 C          64.0114   86.8697   13.6544 C.ar    1  UNL1        0.0072
     24 C          64.0011   86.4900   15.1055 C.ar    1  UNL1        0.0324
     25 I          64.2875   85.0749   15.5125 I       1  UNL1       -0.0424
     26 C          63.7045   87.5253   16.1496 C.ar    1  UNL1        0.0367
     27 C          63.4181   88.9403   15.7427 C.ar    1  UNL1        0.1538
     28 F          63.1215   89.9756   16.7869 F       1  UNL1       -0.2028
@<TRIPOS>BOND
     1    10    11    2
     2    11    12   am
     3    12    14    1
     4    14    15    1
     5    15    16    1
     6    16    17    1
     7    11     1    1
     8     1     2   ar
     9     2     3   ar
    10     3     4   ar
    11     4     5   ar
    12     5     6   ar
    13     6     7   ar
    14     7     8   ar
    15     8     9   ar
    16     9    19    1
    17    19    21    1
    18    21    22   ar
    19    22    23   ar
    20    23    24   ar
    21    24    25    1
    22    24    26   ar
    23    26    27   ar
    24    27    28    1
    25     9     1   ar
    26    27    21   ar
    27     8     3   ar
    28    12    13    1
    29    17    18    1
    30    19    20    1
@<TRIPOS>MOLECULE
*****
 28 30 0 0 0
SMALL
GASTEIGER

@<TRIPOS>ATOM
      1 C          60.6638   89.1125    9.1538 C.ar    1  UNL1        0.2136
      2 O          61.0951   90.3526    9.8793 O.2     1  UNL1       -0.4474
      3 C          62.0074   89.9421   10.9970 C.ar    1  UNL1        0.1498
      4 C          62.7346   90.7355   12.0418 C.ar    1  UNL1        0.0582
      5 C          63.5943   90.0352   13.0519 C.ar    1  UNL1        0.1020
      6 N          63.7269   88.5415   13.0172 N.ar    1  UNL1       -0.2421
      7 C          62.9998   87.7481   11.9723 C.ar    1  UNL1        0.1032
      8 C          62.1400   88.4484   10.9622 C.ar    1  UNL1        0.0702
      9 C          61.3096   87.9357    9.8231 C.ar    1  UNL1        0.0925
     10 O          58.7539   87.9427    7.8371 O.2     1  UNL1       -0.2646
     11 C          59.7475   89.0588    7.9674 C.2     1  UNL1        0.3039
     12 N          59.8249   90.1211    6.9113 N.am    1  UNL1       -0.1871
     13 H          60.4771   90.8537    6.9968 H       1  UNL1        0.1829
     14 O          58.9087   90.0674    5.7249 O.3     1  UNL1       -0.2634
     15 C          58.1620   91.2962    5.2976 C.3     1  UNL1        0.2026
     16 C          56.7514   91.1818    4.8005 C.3     1  UNL1        0.1719
     17 O          55.7338   90.4233    5.5998 O.3     1  UNL1       -0.3794
     18 H          55.9747   89.4840    5.6221 H       1  UNL1        0.2105
     19 N          61.1526   86.4985    9.4235 N.pl3   1  UNL1       -0.3081
     20 H          60.5034   86.2495    8.7265 H       1  UNL1        0.1524
     21 C          61.9846   85.4406   10.0857 C.ar    1  UNL1        0.0762
     22 C          61.7420   85.0860   11.5229 C.ar    1  UNL1        0.0173
     23 C          62.5740   84.0282   12.1853 C.ar    1  UNL1        0.0072
     24 C          63.6487   83.3249   11.4103 C.ar    1  UNL1        0.0324
     25 I          64.4807   82.2670   12.0727 I       1  UNL1       -0.0424
     26 C          63.8913   83.6794    9.9732 C.ar    1  UNL1        0.0367
     27 C          63.0593   84.7373    9.3109 C.ar    1  UNL1        0.1538
     28 F          63.3020   85.0918    7.8738 F       1  UNL1       -0.2028
@<TRIPOS>BOND
     1    10    11    2
     2    11    12   am
     3    12    14    1
     4    14    15    1
     5    15    16    1
     6    16    17    1
     7    11     1    1
     8     1     2   ar
     9     2     3   ar
    10     3     4   ar
    11     4     5   ar
    12     5     6   ar
    13     6     7   ar
    14     7     8   ar
    15     8     9   ar
    16     9    19    1
    17    19    21    1
    18    21    22   ar
    19    22    23   ar
    20    23    24   ar
    21    24    25    1
    22    24    26   ar
    23    26    27   ar
    24    27    28    1
    25     9     1   ar
    26    27    21   ar
    27     8     3   ar
    28    12    13    1
    29    17    18    1
    30    19    20    1
@<TRIPOS>MOLECULE
*****
 28 30 0 0 0
SMALL
GASTEIGER

@<TRIPOS>ATOM
      1 C          63.2924   84.7835   14.5343 C.ar    1  UNL1        0.2136
      2 O          62.9239   83.5306   15.2722 O.2     1  UNL1       -0.4474
      3 C          62.7396   82.4358   14.2636 C.ar    1  UNL1        0.1498
      4 C          62.3728   80.9886   14.4088 C.ar    1  UNL1        0.0582
      5 C          62.2606   80.1177   13.1928 C.ar    1  UNL1        0.1020
      6 N          62.5151   80.6939   11.8314 N.ar    1  UNL1       -0.2421
      7 C          62.8819   82.1411   11.6862 C.ar    1  UNL1        0.1032
      8 C          62.9941   83.0120   12.9022 C.ar    1  UNL1        0.0702
      9 C          63.3358   84.4629   13.0696 C.ar    1  UNL1        0.0925
     10 O          63.1818   86.3841   16.5778 O.2     1  UNL1       -0.2646
     11 C          63.5689   86.1219   15.1525 C.2     1  UNL1        0.3039
     12 N          64.2326   87.1981   14.3455 N.am    1  UNL1       -0.1871
     13 H          64.4867   87.0260   13.4101 H       1  UNL1        0.1829
     14 O          64.5091   88.5365   14.9638 O.3     1  UNL1       -0.2634
     15 C          63.3868   89.5068   15.1850 C.3     1  UNL1        0.2026
     16 C          63.2452   90.2012   16.5070 C.3     1  UNL1        0.1719
     17 O          63.4366   91.6861   16.5985 O.3     1  UNL1       -0.3794
     18 H          64.3597   91.9061   16.3976 H       1  UNL1        0.2105
     19 N          63.6633   85.4245   11.9659 N.pl3   1  UNL1       -0.3081
     20 H          64.5746   85.7879   11.8839 H       1  UNL1        0.1524
     21 C          62.6024   85.8326   10.9872 C.ar    1  UNL1        0.0762
     22 C          61.4984   86.7523   11.4179 C.ar    1  UNL1        0.0173
     23 C          60.4374   87.1604   10.4392 C.ar    1  UNL1        0.0072
     24 C          60.4805   86.6488    9.0298 C.ar    1  UNL1        0.0324
     25 I          59.4196   87.0569    8.0511 I       1  UNL1       -0.0424
     26 C          61.5845   85.7292    8.5991 C.ar    1  UNL1        0.0367
     27 C          62.6454   85.3211    9.5778 C.ar    1  UNL1        0.1538
     28 F          63.7494   84.4014    9.1470 F       1  UNL1       -0.2028
@<TRIPOS>BOND
     1    10    11    2
     2    11    12   am
     3    12    14    1
     4    14    15    1
     5    15    16    1
     6    16    17    1
     7    11     1    1
     8     1     2   ar
     9     2     3   ar
    10     3     4   ar
    11     4     5   ar
    12     5     6   ar
    13     6     7   ar
    14     7     8   ar
    15     8     9   ar
    16     9    19    1
    17    19    21    1
    18    21    22   ar
    19    22    23   ar
    20    23    24   ar
    21    24    25    1
    22    24    26   ar
    23    26    27   ar
    24    27    28    1
    25     9     1   ar
    26    27    21   ar
    27     8     3   ar
    28    12    13    1
    29    17    18    1
    30    19    20    1
@<TRIPOS>MOLECULE
*****
 28 30 0 0 0
SMALL
GASTEIGER

@<TRIPOS>ATOM
      1 C          63.4932   88.7265   12.9660 C.ar    1  UNL1        0.2136
      2 O          62.8579   89.3146   11.7411 O.2     1  UNL1       -0.4474
      3 C          62.2762   88.1909   10.9356 C.ar    1  UNL1        0.1498
      4 C          61.5310   88.1699    9.6340 C.ar    1  UNL1        0.0582
      5 C          61.0616   86.8663    9.0595 C.ar    1  UNL1        0.1020
      6 N          61.3373   85.5836    9.7866 N.ar    1  UNL1       -0.2421
      7 C          62.0825   85.6046   11.0882 C.ar    1  UNL1        0.1032
      8 C          62.5519   86.9082   11.6627 C.ar    1  UNL1        0.0702
      9 C          63.3041   87.2393   12.9176 C.ar    1  UNL1        0.0925
     10 O          64.1281   89.0122   15.4690 O.2     1  UNL1       -0.2646
     11 C          64.1945   89.4913   14.0492 C.2     1  UNL1        0.3039
     12 N          64.9622   90.7352   13.7125 N.am    1  UNL1       -0.1871
     13 H          65.0057   91.0496   12.7806 H       1  UNL1        0.1829
     14 O          65.6634   91.5000   14.7957 O.3     1  UNL1       -0.2634
     15 C          66.6450   92.5766   14.4386 C.3     1  UNL1        0.2026
     16 C          68.1176   92.2960   14.4902 C.3     1  UNL1        0.1719
     17 O          68.8171   91.7369   13.2868 O.3     1  UNL1       -0.3794
     18 H          68.4876   90.8424   13.1079 H       1  UNL1        0.2105
     19 N          63.7830   86.2557   13.9438 N.pl3   1  UNL1       -0.3081
     20 H          64.2873   86.5697   14.7289 H       1  UNL1        0.1524
     21 C          63.4937   84.7937   13.7740 C.ar    1  UNL1        0.0762
     22 C          64.2776   83.9841   12.7840 C.ar    1  UNL1        0.0173
     23 C          63.9883   82.5221   12.6141 C.ar    1  UNL1        0.0072
     24 C          62.9151   81.8697   13.4342 C.ar    1  UNL1        0.0324
     25 I          62.6258   80.4077   13.2643 I       1  UNL1       -0.0424
     26 C          62.1312   82.6793   14.4242 C.ar    1  UNL1        0.0367
     27 C          62.4205   84.1413   14.5941 C.ar    1  UNL1        0.1538
     28 F          61.6366   84.9508   15.5841 F       1  UNL1       -0.2028
@<TRIPOS>BOND
     1    10    11    2
     2    11    12   am
     3    12    14    1
     4    14    15    1
     5    15    16    1
     6    16    17    1
     7    11     1    1
     8     1     2   ar
     9     2     3   ar
    10     3     4   ar
    11     4     5   ar
    12     5     6   ar
    13     6     7   ar
    14     7     8   ar
    15     8     9   ar
    16     9    19    1
    17    19    21    1
    18    21    22   ar
    19    22    23   ar
    20    23    24   ar
    21    24    25    1
    22    24    26   ar
    23    26    27   ar
    24    27    28    1
    25     9     1   ar
    26    27    21   ar
    27     8     3   ar
    28    12    13    1
    29    17    18    1
    30    19    20    1
@<TRIPOS>MOLECULE
*****
 28 30 0 0 0
SMALL
GASTEIGER

@<TRIPOS>ATOM
      1 C          62.1485   88.7128   11.5587 C.ar    1  UNL1        0.2136
      2 O          61.0025   89.3101   10.7972 O.2     1  UNL1       -0.4474
      3 C          60.5400   88.3009    9.7885 C.ar    1  UNL1        0.1498
      4 C          59.4467   88.3361    8.7621 C.ar    1  UNL1        0.0582
      5 C          59.2136   87.1502    7.8737 C.ar    1  UNL1        0.1020
      6 N          60.0738   85.9292    8.0117 N.ar    1  UNL1       -0.2421
      7 C          61.1671   85.8940    9.0380 C.ar    1  UNL1        0.1032
      8 C          61.4002   87.0799    9.9264 C.ar    1  UNL1        0.0702
      9 C          62.3943   87.3344   11.0204 C.ar    1  UNL1        0.0925
     10 O          63.5070   88.5516   13.7674 O.2     1  UNL1       -0.2646
     11 C          62.9143   89.3772   12.6642 C.2     1  UNL1        0.3039
     12 N          63.0875   90.8671   12.6665 N.am    1  UNL1       -0.1871
     13 H          62.6985   91.4090   11.9424 H       1  UNL1        0.1829
     14 O          63.8533   91.5315   13.7720 O.3     1  UNL1       -0.2634
     15 C          65.3530   91.4997   13.7698 C.3     1  UNL1        0.2026
     16 C          66.1295   92.7601   13.5281 C.3     1  UNL1        0.1719
     17 O          66.0557   93.8874   14.5148 O.3     1  UNL1       -0.3794
     18 H          65.1562   94.2503   14.5244 H       1  UNL1        0.2105
     19 N          63.4490   86.3784   11.4932 N.pl3   1  UNL1       -0.3081
     20 H          64.4007   86.6201   11.4207 H       1  UNL1        0.1524
     21 C          63.0540   85.0542   12.0765 C.ar    1  UNL1        0.0762
     22 C          62.6048   84.9678   13.5051 C.ar    1  UNL1        0.0173
     23 C          62.2097   83.6436   14.0884 C.ar    1  UNL1        0.0072
     24 C          62.2638   82.4056   13.2431 C.ar    1  UNL1        0.0324
     25 I          61.8688   81.0814   13.8264 I       1  UNL1       -0.0424
     26 C          62.7130   82.4919   11.8146 C.ar    1  UNL1        0.0367
     27 C          63.1081   83.8162   11.2312 C.ar    1  UNL1        0.1538
     28 F          63.5572   83.9024    9.8027 F       1  UNL1       -0.2028
@<TRIPOS>BOND
     1    10    11    2
     2    11    12   am
     3    12    14    1
     4    14    15    1
     5    15    16    1
     6    16    17    1
     7    11     1    1
     8     1     2   ar
     9     2     3   ar
    10     3     4   ar
    11     4     5   ar
    12     5     6   ar
    13     6     7   ar
    14     7     8   ar
    15     8     9   ar
    16     9    19    1
    17    19    21    1
    18    21    22   ar
    19    22    23   ar
    20    23    24   ar
    21    24    25    1
    22    24    26   ar
    23    26    27   ar
    24    27    28    1
    25     9     1   ar
    26    27    21   ar
    27     8     3   ar
    28    12    13    1
    29    17    18    1
    30    19    20    1
@<TRIPOS>MOLECULE
*****
 28 30 0 0 0
SMALL
GASTEIGER

@<TRIPOS>ATOM
      1 C          64.2462   89.2564   14.2135 C.ar    1  UNL1        0.2136
      2 O          64.6682   88.1164   15.0923 O.2     1  UNL1       -0.4474
      3 C          64.2357   86.8394   14.4349 C.ar    1  UNL1        0.1498
      4 C          64.3804   85.4026   14.8404 C.ar    1  UNL1        0.0582
      5 C          63.8358   84.3165   13.9608 C.ar    1  UNL1        0.1020
      6 N          63.1465   84.6673   12.6756 N.ar    1  UNL1       -0.2421
      7 C          63.0017   86.1041   12.2700 C.ar    1  UNL1        0.1032
      8 C          63.5463   87.1902   13.1497 C.ar    1  UNL1        0.0702
      9 C          63.5528   88.6839   13.0129 C.ar    1  UNL1        0.0925
     10 O          63.6233   91.4324   15.4889 O.2     1  UNL1       -0.2646
     11 C          64.4771   90.7130   14.4872 C.2     1  UNL1        0.3039
     12 N          65.5617   91.4502   13.7592 N.am    1  UNL1       -0.1871
     13 H          66.1221   90.9781   13.1017 H       1  UNL1        0.1829
     14 O          65.7925   92.9069   14.0329 O.3     1  UNL1       -0.2634
     15 C          67.0260   93.3462   14.7649 C.3     1  UNL1        0.2026
     16 C          68.2450   92.4722   14.7722 C.3     1  UNL1        0.1719
     17 O          68.6795   91.7805   13.5142 O.3     1  UNL1       -0.3794
     18 H          68.0116   91.1253   13.2583 H       1  UNL1        0.2105
     19 N          62.9685   89.4676   11.8751 N.pl3   1  UNL1       -0.3081
     20 H          63.1957   90.4192   11.7650 H       1  UNL1        0.1524
     21 C          62.0382   88.8016   10.9053 C.ar    1  UNL1        0.0762
     22 C          62.5917   87.9888    9.7725 C.ar    1  UNL1        0.0173
     23 C          61.6614   87.3227    8.8025 C.ar    1  UNL1        0.0072
     24 C          60.1774   87.4693    8.9654 C.ar    1  UNL1        0.0324
     25 I          59.2471   86.8032    7.9955 I       1  UNL1       -0.0424
     26 C          59.6239   88.2820   10.0981 C.ar    1  UNL1        0.0367
     27 C          60.5543   88.9481   11.0681 C.ar    1  UNL1        0.1538
     28 F          60.0007   89.7608   12.2008 F       1  UNL1       -0.2028
@<TRIPOS>BOND
     1    10    11    2
     2    11    12   am
     3    12    14    1
     4    14    15    1
     5    15    16    1
     6    16    17    1
     7    11     1    1
     8     1     2   ar
     9     2     3   ar
    10     3     4   ar
    11     4     5   ar
    12     5     6   ar
    13     6     7   ar
    14     7     8   ar
    15     8     9   ar
    16     9    19    1
    17    19    21    1
    18    21    22   ar
    19    22    23   ar
    20    23    24   ar
    21    24    25    1
    22    24    26   ar
    23    26    27   ar
    24    27    28    1
    25     9     1   ar
    26    27    21   ar
    27     8     3   ar
    28    12    13    1
    29    17    18    1
    30    19    20    1
