@<TRIPOS>MOLECULE
*****
 18 19 0 0 0
SMALL
GASTEIGER

@<TRIPOS>ATOM
      1 C          62.3825   85.5006   10.8469 C.2     1  UNL1        0.0033
      2 C          63.1304   84.4195   10.1245 C.2     1  UNL1        0.0420
      3 C          60.1641   88.6457    8.5151 C.ar    1  UNL1        0.1387
      4 C          59.9424   87.1931    8.2141 C.ar    1  UNL1        0.0369
      5 C          60.6819   86.1447    8.9913 C.ar    1  UNL1        0.0031
      6 C          61.6430   86.5490   10.0696 C.ar    1  UNL1        0.0003
      7 C          61.8647   88.0016   10.3707 C.ar    1  UNL1        0.0031
      8 C          61.1252   89.0500    9.5934 C.ar    1  UNL1        0.0369
      9 C          59.3544   89.6086    6.2420 C.3     1  UNL1        0.2525
     10 O          59.4246   89.6941    7.7379 O.3     1  UNL1       -0.4714
     11 C          63.8698   83.3711   10.9018 C.2     1  UNL1        0.1957
     12 O          64.8704   82.4921   10.2117 O.2     1  UNL1       -0.2866
     13 C          63.6087   83.2018   12.3692 C.ar    1  UNL1        0.0420
     14 C          62.4880   82.3202   12.8347 C.ar    1  UNL1        0.0239
     15 C          62.2269   82.1508   14.3021 C.ar    1  UNL1        0.0990
     16 N          63.0865   82.8631   15.3040 N.ar    1  UNL1       -0.2423
     17 C          64.2073   83.7448   14.8384 C.ar    1  UNL1        0.0990
     18 C          64.4683   83.9141   13.3710 C.ar    1  UNL1        0.0239
@<TRIPOS>BOND
     1     9    10    1
     2    10     3    1
     3     3     4   ar
     4     4     5   ar
     5     5     6   ar
     6     6     1    1
     7     1     2    2
     8     2    11    1
     9    11    12    2
    10    11    13    1
    11    13    14   ar
    12    14    15   ar
    13    15    16   ar
    14    16    17   ar
    15    17    18   ar
    16     6     7   ar
    17     7     8   ar
    18     8     3   ar
    19    18    13   ar
@<TRIPOS>MOLECULE
*****
 18 19 0 0 0
SMALL
GASTEIGER

@<TRIPOS>ATOM
      1 C          63.0885   91.2314   10.5877 C.2     1  UNL1        0.0033
      2 C          62.1826   90.1474   11.0917 C.2     1  UNL1        0.0420
      3 C          66.6675   92.4810   13.0124 C.ar    1  UNL1        0.1387
      4 C          66.5934   92.8227   11.5537 C.ar    1  UNL1        0.0369
      5 C          65.4004   92.4061   10.7455 C.ar    1  UNL1        0.0031
      6 C          64.2815   91.6480   11.3959 C.ar    1  UNL1        0.0003
      7 C          64.3556   91.3063   12.8546 C.ar    1  UNL1        0.0031
      8 C          65.5486   91.7228   13.6628 C.ar    1  UNL1        0.0369
      9 C          67.6881   93.3190   15.2498 C.3     1  UNL1        0.2525
     10 O          67.8605   92.8976   13.8206 O.3     1  UNL1       -0.4714
     11 C          60.9896   89.7308   10.2835 C.2     1  UNL1        0.1957
     12 O          59.7663   90.5982   10.2501 O.2     1  UNL1       -0.2866
     13 C          61.0199   88.4468    9.5086 C.ar    1  UNL1        0.0420
     14 C          59.8876   88.0994    8.5881 C.ar    1  UNL1        0.0239
     15 C          59.9179   86.8153    7.8132 C.ar    1  UNL1        0.0990
     16 N          61.0805   85.8787    7.9589 N.ar    1  UNL1       -0.2423
     17 C          62.2127   86.2262    8.8795 C.ar    1  UNL1        0.0990
     18 C          62.1824   87.5101    9.6543 C.ar    1  UNL1        0.0239
@<TRIPOS>BOND
     1     9    10    1
     2    10     3    1
     3     3     4   ar
     4     4     5   ar
     5     5     6   ar
     6     6     1    1
     7     1     2    2
     8     2    11    1
     9    11    12    2
    10    11    13    1
    11    13    14   ar
    12    14    15   ar
    13    15    16   ar
    14    16    17   ar
    15    17    18   ar
    16     6     7   ar
    17     7     8   ar
    18     8     3   ar
    19    18    13   ar
@<TRIPOS>MOLECULE
*****
 18 19 0 0 0
SMALL
GASTEIGER

@<TRIPOS>ATOM
      1 C          62.6360   89.7280   12.6312 C.2     1  UNL1        0.0033
      2 C          62.3998   89.1616   11.2625 C.2     1  UNL1        0.0420
      3 C          66.3072   92.2014   13.4401 C.ar    1  UNL1        0.1387
      4 C          65.5243   92.4116   12.1780 C.ar    1  UNL1        0.0369
      5 C          64.3006   91.5872   11.9084 C.ar    1  UNL1        0.0031
      6 C          63.8597   90.5525   12.9008 C.ar    1  UNL1        0.0003
      7 C          64.6426   90.3422   14.1629 C.ar    1  UNL1        0.0031
      8 C          65.8664   91.1667   14.4325 C.ar    1  UNL1        0.0369
      9 C          68.1308   93.0505   15.0843 C.3     1  UNL1        0.2525
     10 O          67.5310   93.0259   13.7097 O.3     1  UNL1       -0.4714
     11 C          61.1761   88.3371   10.9929 C.2     1  UNL1        0.1957
     12 O          59.9889   88.4367   11.9043 O.2     1  UNL1       -0.2866
     13 C          61.1395   87.4130    9.8119 C.ar    1  UNL1        0.0420
     14 C          62.3456   86.5916    9.4647 C.ar    1  UNL1        0.0239
     15 C          62.3091   85.6676    8.2836 C.ar    1  UNL1        0.0990
     16 N          61.0664   85.5650    7.4498 N.ar    1  UNL1       -0.2423
     17 C          59.8603   86.3864    7.7970 C.ar    1  UNL1        0.0990
     18 C          59.8969   87.3104    8.9781 C.ar    1  UNL1        0.0239
@<TRIPOS>BOND
     1     9    10    1
     2    10     3    1
     3     3     4   ar
     4     4     5   ar
     5     5     6   ar
     6     6     1    1
     7     1     2    2
     8     2    11    1
     9    11    12    2
    10    11    13    1
    11    13    14   ar
    12    14    15   ar
    13    15    16   ar
    14    16    17   ar
    15    17    18   ar
    16     6     7   ar
    17     7     8   ar
    18     8     3   ar
    19    18    13   ar
@<TRIPOS>MOLECULE
*****
 18 19 0 0 0
SMALL
GASTEIGER

@<TRIPOS>ATOM
      1 C          62.7282   89.7503   11.9234 C.2     1  UNL1        0.0033
      2 C          61.8046   89.5469   10.7591 C.2     1  UNL1        0.0420
      3 C          65.7707   93.0646   11.8296 C.ar    1  UNL1        0.1387
      4 C          65.5263   92.3066   13.1006 C.ar    1  UNL1        0.0369
      5 C          64.5122   91.2018   13.1319 C.ar    1  UNL1        0.0031
      6 C          63.7424   90.8551   11.8921 C.ar    1  UNL1        0.0003
      7 C          63.9868   91.6131   10.6210 C.ar    1  UNL1        0.0031
      8 C          65.0009   92.7178   10.5898 C.ar    1  UNL1        0.0369
      9 C          66.5221   95.4061   10.9913 C.3     1  UNL1        0.2525
     10 O          66.7849   94.1693   11.7983 O.3     1  UNL1       -0.4714
     11 C          60.7904   88.4422   10.7904 C.2     1  UNL1        0.1957
     12 O          59.9247   88.2528   12.0006 O.2     1  UNL1       -0.2866
     13 C          60.6420   87.5267    9.6114 C.ar    1  UNL1        0.0420
     14 C          61.7759   86.6305    9.2102 C.ar    1  UNL1        0.0239
     15 C          61.6275   85.7151    8.0312 C.ar    1  UNL1        0.0990
     16 N          60.3451   85.6959    7.2534 N.ar    1  UNL1       -0.2423
     17 C          59.2111   86.5922    7.6546 C.ar    1  UNL1        0.0990
     18 C          59.3596   87.5075    8.8336 C.ar    1  UNL1        0.0239
@<TRIPOS>BOND
     1     9    10    1
     2    10     3    1
     3     3     4   ar
     4     4     5   ar
     5     5     6   ar
     6     6     1    1
     7     1     2    2
     8     2    11    1
     9    11    12    2
    10    11    13    1
    11    13    14   ar
    12    14    15   ar
    13    15    16   ar
    14    16    17   ar
    15    17    18   ar
    16     6     7   ar
    17     7     8   ar
    18     8     3   ar
    19    18    13   ar
@<TRIPOS>MOLECULE
*****
 18 19 0 0 0
SMALL
GASTEIGER

@<TRIPOS>ATOM
      1 C          62.6419   89.3811   12.3664 C.2     1  UNL1        0.0033
      2 C          62.7879   88.4131   11.2299 C.2     1  UNL1        0.0420
      3 C          65.9451   92.2988   13.2752 C.ar    1  UNL1        0.1387
      4 C          65.5842   91.2396   14.2740 C.ar    1  UNL1        0.0369
      5 C          64.4831   90.2670   13.9711 C.ar    1  UNL1        0.0031
      6 C          63.7430   90.3537   12.6693 C.ar    1  UNL1        0.0003
      7 C          64.1038   91.4130   11.6705 C.ar    1  UNL1        0.0031
      8 C          65.2049   92.3856   11.9735 C.ar    1  UNL1        0.0369
      9 C          67.5484   93.4217   14.9835 C.3     1  UNL1        0.2525
     10 O          67.0461   93.2714   13.5782 O.3     1  UNL1       -0.4714
     11 C          61.6868   87.4406   10.9269 C.2     1  UNL1        0.1957
     12 O          61.4242   86.2920   11.8553 O.2     1  UNL1       -0.2866
     13 C          60.8484   87.6165    9.6955 C.ar    1  UNL1        0.0420
     14 C          60.3137   86.4150    8.9743 C.ar    1  UNL1        0.0239
     15 C          59.4753   86.5910    7.7429 C.ar    1  UNL1        0.0990
     16 N          59.1717   87.9686    7.2329 N.ar    1  UNL1       -0.2423
     17 C          59.7065   89.1702    7.9542 C.ar    1  UNL1        0.0990
     18 C          60.5448   88.9941    9.1855 C.ar    1  UNL1        0.0239
@<TRIPOS>BOND
     1     9    10    1
     2    10     3    1
     3     3     4   ar
     4     4     5   ar
     5     5     6   ar
     6     6     1    1
     7     1     2    2
     8     2    11    1
     9    11    12    2
    10    11    13    1
    11    13    14   ar
    12    14    15   ar
    13    15    16   ar
    14    16    17   ar
    15    17    18   ar
    16     6     7   ar
    17     7     8   ar
    18     8     3   ar
    19    18    13   ar
@<TRIPOS>MOLECULE
*****
 18 19 0 0 0
SMALL
GASTEIGER

@<TRIPOS>ATOM
      1 C          63.2243   89.6207   12.1976 C.2     1  UNL1        0.0033
      2 C          62.4555   89.1897   10.9839 C.2     1  UNL1        0.0420
      3 C          65.7839   93.3186   12.0439 C.ar    1  UNL1        0.1387
      4 C          65.0399   92.8701   10.8211 C.ar    1  UNL1        0.0369
      5 C          64.1866   91.6375   10.8724 C.ar    1  UNL1        0.0031
      6 C          64.0775   90.8533   12.1464 C.ar    1  UNL1        0.0003
      7 C          64.8216   91.3018   13.3691 C.ar    1  UNL1        0.0031
      8 C          65.6748   92.5344   13.3179 C.ar    1  UNL1        0.0369
      9 C          66.4626   95.5383   10.8768 C.3     1  UNL1        0.2525
     10 O          66.6372   94.5512   11.9927 O.3     1  UNL1       -0.4714
     11 C          61.6023   87.9571   11.0351 C.2     1  UNL1        0.1957
     12 O          60.1843   88.0459   11.5163 O.2     1  UNL1       -0.2866
     13 C          62.1670   86.6356   10.6052 C.ar    1  UNL1        0.0420
     14 C          62.4761   86.3870    9.1586 C.ar    1  UNL1        0.0239
     15 C          63.0409   85.0655    8.7287 C.ar    1  UNL1        0.0990
     16 N          63.2966   83.9927    9.7454 N.ar    1  UNL1       -0.2423
     17 C          62.9875   84.2413   11.1920 C.ar    1  UNL1        0.0990
     18 C          62.4227   85.5628   11.6219 C.ar    1  UNL1        0.0239
@<TRIPOS>BOND
     1     9    10    1
     2    10     3    1
     3     3     4   ar
     4     4     5   ar
     5     5     6   ar
     6     6     1    1
     7     1     2    2
     8     2    11    1
     9    11    12    2
    10    11    13    1
    11    13    14   ar
    12    14    15   ar
    13    15    16   ar
    14    16    17   ar
    15    17    18   ar
    16     6     7   ar
    17     7     8   ar
    18     8     3   ar
    19    18    13   ar
@<TRIPOS>MOLECULE
*****
 18 19 0 0 0
SMALL
GASTEIGER

@<TRIPOS>ATOM
      1 C          63.4407   88.3966   12.6973 C.2     1  UNL1        0.0033
      2 C          63.1802   89.8032   13.1483 C.2     1  UNL1        0.0420
      3 C          61.0206   86.6246    9.3428 C.ar    1  UNL1        0.1387
      4 C          61.2743   88.1023    9.3853 C.ar    1  UNL1        0.0369
      5 C          62.0810   88.6930   10.5034 C.ar    1  UNL1        0.0031
      6 C          62.6340   87.8059   11.5791 C.ar    1  UNL1        0.0003
      7 C          62.3803   86.3282   11.5367 C.ar    1  UNL1        0.0031
      8 C          61.5736   85.7375   10.4185 C.ar    1  UNL1        0.0369
      9 C          59.0054   86.7570    7.7084 C.3     1  UNL1        0.2525
     10 O          60.2138   86.0339    8.2246 O.3     1  UNL1       -0.4714
     11 C          63.9869   90.3939   14.2665 C.2     1  UNL1        0.1957
     12 O          63.8060   89.8918   15.6683 O.2     1  UNL1       -0.2866
     13 C          64.9746   91.4867   13.9828 C.ar    1  UNL1        0.0420
     14 C          65.8665   91.9941   15.0768 C.ar    1  UNL1        0.0239
     15 C          66.8541   93.0869   14.7931 C.ar    1  UNL1        0.0990
     16 N          66.9498   93.6722   13.4153 N.ar    1  UNL1       -0.2423
     17 C          66.0579   93.1647   12.3212 C.ar    1  UNL1        0.0990
     18 C          65.0703   92.0719   12.6050 C.ar    1  UNL1        0.0239
@<TRIPOS>BOND
     1     9    10    1
     2    10     3    1
     3     3     4   ar
     4     4     5   ar
     5     5     6   ar
     6     6     1    1
     7     1     2    2
     8     2    11    1
     9    11    12    2
    10    11    13    1
    11    13    14   ar
    12    14    15   ar
    13    15    16   ar
    14    16    17   ar
    15    17    18   ar
    16     6     7   ar
    17     7     8   ar
    18     8     3   ar
    19    18    13   ar
@<TRIPOS>MOLECULE
*****
 18 19 0 0 0
SMALL
GASTEIGER

@<TRIPOS>ATOM
      1 C          63.2075   89.1788   12.7094 C.2     1  UNL1        0.0033
      2 C          62.5887   89.1342   11.3437 C.2     1  UNL1        0.0420
      3 C          66.0162   92.5215   13.7990 C.ar    1  UNL1        0.1387
      4 C          65.2834   92.5541   12.4906 C.ar    1  UNL1        0.0369
      5 C          64.3471   91.4399   12.1275 C.ar    1  UNL1        0.0031
      6 C          64.1437   90.2930   13.0726 C.ar    1  UNL1        0.0003
      7 C          64.8766   90.2604   14.3809 C.ar    1  UNL1        0.0031
      8 C          65.8128   91.3747   14.7441 C.ar    1  UNL1        0.0369
      9 C          67.7973   93.5329   15.3974 C.3     1  UNL1        0.2525
     10 O          66.9525   93.6357   14.1622 O.3     1  UNL1       -0.4714
     11 C          61.6524   88.0200   10.9806 C.2     1  UNL1        0.1957
     12 O          60.1700   88.2201   11.0907 O.2     1  UNL1       -0.2866
     13 C          62.1987   86.7056   10.5072 C.ar    1  UNL1        0.0420
     14 C          62.4420   85.5974   11.4884 C.ar    1  UNL1        0.0239
     15 C          62.9883   84.2830   11.0151 C.ar    1  UNL1        0.0990
     16 N          63.2913   84.0769    9.5605 N.ar    1  UNL1       -0.2423
     17 C          63.0480   85.1851    8.5793 C.ar    1  UNL1        0.0990
     18 C          62.5017   86.4994    9.0527 C.ar    1  UNL1        0.0239
@<TRIPOS>BOND
     1     9    10    1
     2    10     3    1
     3     3     4   ar
     4     4     5   ar
     5     5     6   ar
     6     6     1    1
     7     1     2    2
     8     2    11    1
     9    11    12    2
    10    11    13    1
    11    13    14   ar
    12    14    15   ar
    13    15    16   ar
    14    16    17   ar
    15    17    18   ar
    16     6     7   ar
    17     7     8   ar
    18     8     3   ar
    19    18    13   ar
@<TRIPOS>MOLECULE
*****
 18 19 0 0 0
SMALL
GASTEIGER

@<TRIPOS>ATOM
      1 C          62.7328   88.2427   11.9492 C.2     1  UNL1        0.0033
      2 C          63.0978   86.8417   12.3414 C.2     1  UNL1        0.0420
      3 C          64.9926   91.7262   13.6838 C.ar    1  UNL1        0.1387
      4 C          64.8594   90.4538   14.4669 C.ar    1  UNL1        0.0369
      5 C          64.1061   89.2926   13.8887 C.ar    1  UNL1        0.0031
      6 C          63.4860   89.4039   12.5274 C.ar    1  UNL1        0.0003
      7 C          63.6193   90.6763   11.7444 C.ar    1  UNL1        0.0031
      8 C          64.3725   91.8374   12.3226 C.ar    1  UNL1        0.0369
      9 C          67.1181   92.6822   14.8319 C.3     1  UNL1        0.2525
     10 O          65.7458   92.8873   14.2620 O.3     1  UNL1       -0.4714
     11 C          62.3446   85.6806   11.7632 C.2     1  UNL1        0.1957
     12 O          61.2258   85.9204   10.7933 O.2     1  UNL1       -0.2866
     13 C          62.7101   84.2795   12.1550 C.ar    1  UNL1        0.0420
     14 C          63.0924   83.2819   11.1021 C.ar    1  UNL1        0.0239
     15 C          63.4580   81.8808   11.4938 C.ar    1  UNL1        0.0990
     16 N          63.4413   81.4774   12.9385 N.ar    1  UNL1       -0.2423
     17 C          63.0589   82.4751   13.9914 C.ar    1  UNL1        0.0990
     18 C          62.6934   83.8761   13.5996 C.ar    1  UNL1        0.0239
@<TRIPOS>BOND
     1     9    10    1
     2    10     3    1
     3     3     4   ar
     4     4     5   ar
     5     5     6   ar
     6     6     1    1
     7     1     2    2
     8     2    11    1
     9    11    12    2
    10    11    13    1
    11    13    14   ar
    12    14    15   ar
    13    15    16   ar
    14    16    17   ar
    15    17    18   ar
    16     6     7   ar
    17     7     8   ar
    18     8     3   ar
    19    18    13   ar
