@<TRIPOS>MOLECULE
*****
 29 31 0 0 0
SMALL
GASTEIGER

@<TRIPOS>ATOM
      1 C          63.7383   90.9880   13.3721 C.ar    1  UNL1        0.1041
      2 C          62.6958   89.9330   13.1483 C.ar    1  UNL1        0.0292
      3 C          62.2562   89.5968   11.7541 C.ar    1  UNL1        0.0656
      4 C          62.8593   90.3155   10.5838 C.ar    1  UNL1        0.0190
      5 C          63.9018   91.3705   10.8076 C.ar    1  UNL1        0.0395
      6 C          64.3413   91.7067   12.2018 C.ar    1  UNL1        0.1550
      7 N          64.6174   91.6604   16.1605 N.1     1  UNL1       -0.1907
      8 C          64.1778   91.3242   14.7663 C.1     1  UNL1        0.1035
      9 N          61.2136   88.5418   11.5303 N.pl3   1  UNL1       -0.2150
     10 H          60.4594   88.4543   12.1570 H       1  UNL1        0.1737
     11 S          61.3203   87.6200   10.3517 S.O2    1  UNL1        0.0744
     12 O          61.1669   88.7886    9.4239 O.2     1  UNL1       -0.1499
     13 O          61.4737   86.4514   11.2796 O.2     1  UNL1       -0.1499
     14 C          61.4270   86.6983    9.1732 C.ar    1  UNL1        0.1357
     15 C          62.7335   86.0320    8.8579 C.ar    1  UNL1        0.0219
     16 C          62.8401   85.1103    7.6794 C.ar    1  UNL1        0.0128
     17 C          61.6403   84.8548    6.8160 C.ar    1  UNL1        0.0586
     18 CL         61.7470   83.9331    5.6375 Cl      1  UNL1       -0.0822
     19 C          60.3339   85.5211    7.1313 C.ar    1  UNL1        0.0241
     20 C          60.2273   86.4428    8.3099 C.ar    1  UNL1        0.0773
     21 CL         58.9208   87.1091    8.6251 Cl      1  UNL1       -0.0808
     22 O          65.3839   92.7617   12.4256 O.3     1  UNL1       -0.4512
     23 C          66.1384   93.3297   11.2602 C.ar    1  UNL1        0.1652
     24 C          65.8384   94.7178   10.7772 C.ar    1  UNL1        0.1363
     25 N          66.5928   95.2858    9.6118 N.ar    1  UNL1       -0.2382
     26 C          67.6473   94.4658    8.9294 C.ar    1  UNL1        0.1104
     27 C          67.9474   93.0777    9.4125 C.ar    1  UNL1        0.0798
     28 CL         69.0019   92.2577    8.7301 Cl      1  UNL1       -0.0805
     29 C          67.1929   92.5097   10.5779 C.ar    1  UNL1        0.0521
@<TRIPOS>BOND
     1     7     8    3
     2     8     1    1
     3     1     2   ar
     4     2     3   ar
     5     3     9    1
     6     9    11    1
     7    11    12    2
     8    11    13    2
     9    11    14    1
    10    14    15   ar
    11    15    16   ar
    12    16    17   ar
    13    17    18    1
    14    17    19   ar
    15    19    20   ar
    16    20    21    1
    17     3     4   ar
    18     4     5   ar
    19     5     6   ar
    20     6    22    1
    21    22    23    1
    22    23    24   ar
    23    24    25   ar
    24    25    26   ar
    25    26    27   ar
    26    27    28    1
    27    27    29   ar
    28     6     1   ar
    29    29    23   ar
    30    20    14   ar
    31     9    10    1
@<TRIPOS>MOLECULE
*****
 29 31 0 0 0
SMALL
GASTEIGER

@<TRIPOS>ATOM
      1 C          63.8289   91.0330   13.3328 C.ar    1  UNL1        0.1041
      2 C          62.8526   89.9116   13.1348 C.ar    1  UNL1        0.0292
      3 C          62.3930   89.5523   11.7529 C.ar    1  UNL1        0.0656
      4 C          62.9098   90.3145   10.5689 C.ar    1  UNL1        0.0190
      5 C          63.8861   91.4359   10.7668 C.ar    1  UNL1        0.0395
      6 C          64.3456   91.7952   12.1487 C.ar    1  UNL1        0.1550
      7 N          64.7479   91.7515   16.0967 N.1     1  UNL1       -0.1907
      8 C          64.2884   91.3922   14.7147 C.1     1  UNL1        0.1035
      9 N          61.4167   88.4309   11.5550 N.pl3   1  UNL1       -0.2150
     10 H          60.4493   88.6136   11.5611 H       1  UNL1        0.1737
     11 S          61.9143   87.0311   11.3479 S.O2    1  UNL1        0.0744
     12 O          63.1188   87.3349   12.1886 O.2     1  UNL1       -0.1499
     13 O          60.7097   86.7272   10.5072 O.2     1  UNL1       -0.1499
     14 C          62.4119   85.6312   11.1408 C.ar    1  UNL1        0.1357
     15 C          62.4279   84.6637   12.2870 C.ar    1  UNL1        0.0219
     16 C          62.9255   83.2639   12.0799 C.ar    1  UNL1        0.0128
     17 C          63.4071   82.8316   10.7266 C.ar    1  UNL1        0.0586
     18 CL         63.9047   81.4318   10.5195 Cl      1  UNL1       -0.0822
     19 C          63.3910   83.7991    9.5805 C.ar    1  UNL1        0.0241
     20 C          62.8934   85.1990    9.7876 C.ar    1  UNL1        0.0773
     21 CL         62.8774   86.1665    8.6414 Cl      1  UNL1       -0.0808
     22 O          65.3220   92.9166   12.3466 O.3     1  UNL1       -0.4512
     23 C          66.1181   93.4318   11.1844 C.ar    1  UNL1        0.1652
     24 C          65.8535   94.8059   10.6442 C.ar    1  UNL1        0.1363
     25 N          66.6496   95.3211    9.4820 N.ar    1  UNL1       -0.2382
     26 C          67.7104   94.4621    8.8599 C.ar    1  UNL1        0.1104
     27 C          67.9750   93.0880    9.4000 C.ar    1  UNL1        0.0798
     28 CL         69.0357   92.2290    8.7779 Cl      1  UNL1       -0.0805
     29 C          67.1789   92.5728   10.5623 C.ar    1  UNL1        0.0521
@<TRIPOS>BOND
     1     7     8    3
     2     8     1    1
     3     1     2   ar
     4     2     3   ar
     5     3     9    1
     6     9    11    1
     7    11    12    2
     8    11    13    2
     9    11    14    1
    10    14    15   ar
    11    15    16   ar
    12    16    17   ar
    13    17    18    1
    14    17    19   ar
    15    19    20   ar
    16    20    21    1
    17     3     4   ar
    18     4     5   ar
    19     5     6   ar
    20     6    22    1
    21    22    23    1
    22    23    24   ar
    23    24    25   ar
    24    25    26   ar
    25    26    27   ar
    26    27    28    1
    27    27    29   ar
    28     6     1   ar
    29    29    23   ar
    30    20    14   ar
    31     9    10    1
@<TRIPOS>MOLECULE
*****
 29 31 0 0 0
SMALL
GASTEIGER

@<TRIPOS>ATOM
      1 C          61.2403   87.7578   10.0376 C.ar    1  UNL1        0.1041
      2 C          61.4721   89.2089   10.3383 C.ar    1  UNL1        0.0292
      3 C          62.4288   89.6065   11.4230 C.ar    1  UNL1        0.0656
      4 C          63.1537   88.5530   12.2070 C.ar    1  UNL1        0.0190
      5 C          62.9220   87.1019   11.9062 C.ar    1  UNL1        0.0395
      6 C          61.9653   86.7043   10.8215 C.ar    1  UNL1        0.1550
      7 N          59.3270   86.9625    7.8681 N.1     1  UNL1       -0.1907
      8 C          60.2837   87.3601    8.9528 C.1     1  UNL1        0.1035
      9 N          62.6606   91.0577   11.7238 N.pl3   1  UNL1       -0.2150
     10 H          62.0029   91.7313   11.4356 H       1  UNL1        0.1737
     11 S          63.8944   91.4826   12.4635 S.O2    1  UNL1        0.0744
     12 O          64.6424   91.5691   11.1662 O.2     1  UNL1       -0.1499
     13 O          63.1464   91.3961   13.7608 O.2     1  UNL1       -0.1499
     14 C          65.1282   91.9075   13.2032 C.ar    1  UNL1        0.1357
     15 C          65.8040   93.2004   12.8542 C.ar    1  UNL1        0.0219
     16 C          67.0378   93.6253   13.5940 C.ar    1  UNL1        0.0128
     17 C          67.5958   92.7572   14.6827 C.ar    1  UNL1        0.0586
     18 CL         68.8296   93.1821   15.4224 Cl      1  UNL1       -0.0822
     19 C          66.9200   91.4644   15.0317 C.ar    1  UNL1        0.0241
     20 C          65.6862   91.0395   14.2919 C.ar    1  UNL1        0.0773
     21 CL         65.0103   89.7466   14.6409 Cl      1  UNL1       -0.0808
     22 O          61.7335   85.2531   10.5208 O.3     1  UNL1       -0.4512
     23 C          62.6919   84.2188   11.0323 C.ar    1  UNL1        0.1652
     24 C          63.7727   83.6896   10.1368 C.ar    1  UNL1        0.1363
     25 N          64.7311   82.6553   10.6483 N.ar    1  UNL1       -0.2382
     26 C          64.6087   82.1501   12.0554 C.ar    1  UNL1        0.1104
     27 C          63.5280   82.6792   12.9509 C.ar    1  UNL1        0.0798
     28 CL         63.4056   82.1740   14.3580 Cl      1  UNL1       -0.0805
     29 C          62.5695   83.7136   12.4394 C.ar    1  UNL1        0.0521
@<TRIPOS>BOND
     1     7     8    3
     2     8     1    1
     3     1     2   ar
     4     2     3   ar
     5     3     9    1
     6     9    11    1
     7    11    12    2
     8    11    13    2
     9    11    14    1
    10    14    15   ar
    11    15    16   ar
    12    16    17   ar
    13    17    18    1
    14    17    19   ar
    15    19    20   ar
    16    20    21    1
    17     3     4   ar
    18     4     5   ar
    19     5     6   ar
    20     6    22    1
    21    22    23    1
    22    23    24   ar
    23    24    25   ar
    24    25    26   ar
    25    26    27   ar
    26    27    28    1
    27    27    29   ar
    28     6     1   ar
    29    29    23   ar
    30    20    14   ar
    31     9    10    1
@<TRIPOS>MOLECULE
*****
 29 31 0 0 0
SMALL
GASTEIGER

@<TRIPOS>ATOM
      1 C          63.1111   88.7423   12.2080 C.ar    1  UNL1        0.1041
      2 C          63.2022   87.3359   12.7214 C.ar    1  UNL1        0.0292
      3 C          63.8467   87.0619   14.0479 C.ar    1  UNL1        0.0656
      4 C          64.3999   88.1944   14.8611 C.ar    1  UNL1        0.0190
      5 C          64.3088   89.6009   14.3477 C.ar    1  UNL1        0.0395
      6 C          63.6644   89.8748   13.0212 C.ar    1  UNL1        0.1550
      7 N          61.8223   89.2902    9.5550 N.1     1  UNL1       -0.1907
      8 C          62.4667   89.0162   10.8815 C.1     1  UNL1        0.1035
      9 N          63.9378   85.6554   14.5613 N.pl3   1  UNL1       -0.2150
     10 H          64.1257   85.4901   15.5135 H       1  UNL1        0.1737
     11 S          63.7426   84.5008   13.6239 S.O2    1  UNL1        0.0744
     12 O          62.2836   84.8329   13.5186 O.2     1  UNL1       -0.1499
     13 O          65.2015   84.1686   13.7292 O.2     1  UNL1       -0.1499
     14 C          63.5474   83.3462   12.6865 C.ar    1  UNL1        0.1357
     15 C          64.0619   83.4269   11.2797 C.ar    1  UNL1        0.0219
     16 C          63.8667   82.2723   10.3423 C.ar    1  UNL1        0.0128
     17 C          63.1570   81.0369   10.8116 C.ar    1  UNL1        0.0586
     18 CL         62.9618   79.8823    9.8742 Cl      1  UNL1       -0.0822
     19 C          62.6426   80.9562   12.2183 C.ar    1  UNL1        0.0241
     20 C          62.8378   82.1108   13.1557 C.ar    1  UNL1        0.0773
     21 CL         62.3233   82.0300   14.5625 Cl      1  UNL1       -0.0808
     22 O          63.5733   91.2813   12.5079 O.3     1  UNL1       -0.4512
     23 C          64.8242   92.0646   12.2405 C.ar    1  UNL1        0.1652
     24 C          65.7523   92.4040   13.3690 C.ar    1  UNL1        0.1363
     25 N          67.0032   93.1873   13.1016 N.ar    1  UNL1       -0.2382
     26 C          67.3262   93.6313   11.7057 C.ar    1  UNL1        0.1104
     27 C          66.3982   93.2919   10.5772 C.ar    1  UNL1        0.0798
     28 CL         66.7211   93.7359    9.1812 Cl      1  UNL1       -0.0805
     29 C          65.1471   92.5086   10.8445 C.ar    1  UNL1        0.0521
@<TRIPOS>BOND
     1     7     8    3
     2     8     1    1
     3     1     2   ar
     4     2     3   ar
     5     3     9    1
     6     9    11    1
     7    11    12    2
     8    11    13    2
     9    11    14    1
    10    14    15   ar
    11    15    16   ar
    12    16    17   ar
    13    17    18    1
    14    17    19   ar
    15    19    20   ar
    16    20    21    1
    17     3     4   ar
    18     4     5   ar
    19     5     6   ar
    20     6    22    1
    21    22    23    1
    22    23    24   ar
    23    24    25   ar
    24    25    26   ar
    25    26    27   ar
    26    27    28    1
    27    27    29   ar
    28     6     1   ar
    29    29    23   ar
    30    20    14   ar
    31     9    10    1
@<TRIPOS>MOLECULE
*****
 29 31 0 0 0
SMALL
GASTEIGER

@<TRIPOS>ATOM
      1 C          61.5540   87.9814    9.9742 C.ar    1  UNL1        0.1041
      2 C          61.9311   89.4232   10.1447 C.ar    1  UNL1        0.0292
      3 C          62.8049   89.8393   11.2907 C.ar    1  UNL1        0.0656
      4 C          63.3015   88.8138   12.2662 C.ar    1  UNL1        0.0190
      5 C          62.9244   87.3721   12.0957 C.ar    1  UNL1        0.0395
      6 C          62.0506   86.9559   10.9497 C.ar    1  UNL1        0.1550
      7 N          59.8064   87.1491    7.6823 N.1     1  UNL1       -0.1907
      8 C          60.6802   87.5652    8.8282 C.1     1  UNL1        0.1035
      9 N          63.1821   91.2812   11.4612 N.pl3   1  UNL1       -0.2150
     10 H          62.6743   91.9817   10.9915 H       1  UNL1        0.1737
     11 S          64.3330   91.6556   12.3473 S.O2    1  UNL1        0.0744
     12 O          63.4384   91.5642   13.5479 O.2     1  UNL1       -0.1499
     13 O          65.2276   91.7469   11.1468 O.2     1  UNL1       -0.1499
     14 C          65.4839   92.0300   13.2334 C.ar    1  UNL1        0.1357
     15 C          65.9114   91.1085   14.3372 C.ar    1  UNL1        0.0219
     16 C          67.0623   91.4829   15.2233 C.ar    1  UNL1        0.0128
     17 C          67.7858   92.7788   15.0057 C.ar    1  UNL1        0.0586
     18 CL         68.9367   93.1532   15.8918 Cl      1  UNL1       -0.0822
     19 C          67.3583   93.7002   13.9020 C.ar    1  UNL1        0.0241
     20 C          66.2074   93.3258   13.0158 C.ar    1  UNL1        0.0773
     21 CL         65.7799   94.2473   11.9121 Cl      1  UNL1       -0.0808
     22 O          61.6734   85.5141   10.7792 O.3     1  UNL1       -0.4512
     23 C          62.6430   84.4351   11.1605 C.ar    1  UNL1        0.1652
     24 C          63.5990   83.8910   10.1406 C.ar    1  UNL1        0.1363
     25 N          64.5687   82.8120   10.5219 N.ar    1  UNL1       -0.2382
     26 C          64.5824   82.2769   11.9231 C.ar    1  UNL1        0.1104
     27 C          63.6265   82.8209   12.9431 C.ar    1  UNL1        0.0798
     28 CL         63.6403   82.2858   14.3443 Cl      1  UNL1       -0.0805
     29 C          62.6568   83.9000   12.5618 C.ar    1  UNL1        0.0521
@<TRIPOS>BOND
     1     7     8    3
     2     8     1    1
     3     1     2   ar
     4     2     3   ar
     5     3     9    1
     6     9    11    1
     7    11    12    2
     8    11    13    2
     9    11    14    1
    10    14    15   ar
    11    15    16   ar
    12    16    17   ar
    13    17    18    1
    14    17    19   ar
    15    19    20   ar
    16    20    21    1
    17     3     4   ar
    18     4     5   ar
    19     5     6   ar
    20     6    22    1
    21    22    23    1
    22    23    24   ar
    23    24    25   ar
    24    25    26   ar
    25    26    27   ar
    26    27    28    1
    27    27    29   ar
    28     6     1   ar
    29    29    23   ar
    30    20    14   ar
    31     9    10    1
@<TRIPOS>MOLECULE
*****
 29 31 0 0 0
SMALL
GASTEIGER

@<TRIPOS>ATOM
      1 C          61.7098   87.2612    9.9982 C.ar    1  UNL1        0.1041
      2 C          61.8870   88.7454   10.1240 C.ar    1  UNL1        0.0292
      3 C          62.6366   89.3150   11.2917 C.ar    1  UNL1        0.0656
      4 C          63.2090   88.4004   12.3337 C.ar    1  UNL1        0.0190
      5 C          63.0319   86.9162   12.2079 C.ar    1  UNL1        0.0395
      6 C          62.2823   86.3467   11.0402 C.ar    1  UNL1        0.1550
      7 N          60.2106   86.1221    7.6627 N.1     1  UNL1       -0.1907
      8 C          60.9602   86.6917    8.8304 C.1     1  UNL1        0.1035
      9 N          62.8137   90.7992   11.4175 N.pl3   1  UNL1       -0.2150
     10 H          62.1918   91.4097   10.9595 H       1  UNL1        0.1737
     11 S          63.9384   91.3532   12.2409 S.O2    1  UNL1        0.0744
     12 O          63.0822   91.2654   13.4694 O.2     1  UNL1       -0.1499
     13 O          64.7947   91.4409   11.0125 O.2     1  UNL1       -0.1499
     14 C          65.0631   91.9071   13.0644 C.ar    1  UNL1        0.1357
     15 C          65.6658   93.2353   12.7139 C.ar    1  UNL1        0.0219
     16 C          66.7905   93.7893   13.5374 C.ar    1  UNL1        0.0128
     17 C          67.3126   93.0151   14.7114 C.ar    1  UNL1        0.0586
     18 CL         68.4373   93.5691   15.5349 Cl      1  UNL1       -0.0822
     19 C          66.7099   91.6870   15.0618 C.ar    1  UNL1        0.0241
     20 C          65.5852   91.1330   14.2384 C.ar    1  UNL1        0.0773
     21 CL         64.9825   89.8048   14.5888 Cl      1  UNL1       -0.0808
     22 O          62.1051   84.8624   10.9144 O.3     1  UNL1       -0.4512
     23 C          62.6919   83.9469   11.9476 C.ar    1  UNL1        0.1652
     24 C          63.6629   84.4811   12.9585 C.ar    1  UNL1        0.1363
     25 N          64.2497   83.5656   13.9916 N.ar    1  UNL1       -0.2382
     26 C          63.8655   82.1158   14.0140 C.ar    1  UNL1        0.1104
     27 C          62.8945   81.5815   13.0032 C.ar    1  UNL1        0.0798
     28 CL         62.5104   80.1318   13.0255 Cl      1  UNL1       -0.0805
     29 C          62.3077   82.4971   11.9700 C.ar    1  UNL1        0.0521
@<TRIPOS>BOND
     1     7     8    3
     2     8     1    1
     3     1     2   ar
     4     2     3   ar
     5     3     9    1
     6     9    11    1
     7    11    12    2
     8    11    13    2
     9    11    14    1
    10    14    15   ar
    11    15    16   ar
    12    16    17   ar
    13    17    18    1
    14    17    19   ar
    15    19    20   ar
    16    20    21    1
    17     3     4   ar
    18     4     5   ar
    19     5     6   ar
    20     6    22    1
    21    22    23    1
    22    23    24   ar
    23    24    25   ar
    24    25    26   ar
    25    26    27   ar
    26    27    28    1
    27    27    29   ar
    28     6     1   ar
    29    29    23   ar
    30    20    14   ar
    31     9    10    1
@<TRIPOS>MOLECULE
*****
 29 31 0 0 0
SMALL
GASTEIGER

@<TRIPOS>ATOM
      1 C          60.2862   87.4280    8.5236 C.ar    1  UNL1        0.1041
      2 C          60.8955   87.3808    9.8935 C.ar    1  UNL1        0.0292
      3 C          60.9082   88.6110   10.7515 C.ar    1  UNL1        0.0656
      4 C          60.3115   89.8886   10.2398 C.ar    1  UNL1        0.0190
      5 C          59.7022   89.9358    8.8700 C.ar    1  UNL1        0.0395
      6 C          59.6896   88.7056    8.0119 C.ar    1  UNL1        0.1550
      7 N          60.2608   84.9675    6.8075 N.1     1  UNL1       -0.1907
      8 C          60.2735   86.1978    7.6656 C.1     1  UNL1        0.1035
      9 N          61.5175   88.5637   12.1214 N.pl3   1  UNL1       -0.2150
     10 H          61.1699   87.9337   12.7933 H       1  UNL1        0.1737
     11 S          62.6565   89.4764   12.4675 S.O2    1  UNL1        0.0744
     12 O          63.4197   88.9752   11.2774 O.2     1  UNL1       -0.1499
     13 O          61.8933   89.9775   13.6577 O.2     1  UNL1       -0.1499
     14 C          63.7955   90.3890   12.8137 C.ar    1  UNL1        0.1357
     15 C          64.5345   90.2091   14.1066 C.ar    1  UNL1        0.0219
     16 C          65.6735   91.1217   14.4527 C.ar    1  UNL1        0.0128
     17 C          66.0735   92.2143   13.5059 C.ar    1  UNL1        0.0586
     18 CL         67.2125   93.1269   13.8520 Cl      1  UNL1       -0.0822
     19 C          65.3345   92.3941   12.2130 C.ar    1  UNL1        0.0241
     20 C          64.1955   91.4815   11.8669 C.ar    1  UNL1        0.0773
     21 CL         63.4566   91.6614   10.5739 Cl      1  UNL1       -0.0808
     22 O          59.0802   88.7529    6.6420 O.3     1  UNL1       -0.4512
     23 C          59.1937   89.9980    5.8133 C.ar    1  UNL1        0.1652
     24 C          58.0018   90.8910    5.6343 C.ar    1  UNL1        0.1363
     25 N          58.1153   92.1361    4.8055 N.ar    1  UNL1       -0.2382
     26 C          59.4206   92.4882    4.1558 C.ar    1  UNL1        0.1104
     27 C          60.6124   91.5952    4.3347 C.ar    1  UNL1        0.0798
     28 CL         61.9177   91.9474    3.6850 Cl      1  UNL1       -0.0805
     29 C          60.4990   90.3501    5.1635 C.ar    1  UNL1        0.0521
@<TRIPOS>BOND
     1     7     8    3
     2     8     1    1
     3     1     2   ar
     4     2     3   ar
     5     3     9    1
     6     9    11    1
     7    11    12    2
     8    11    13    2
     9    11    14    1
    10    14    15   ar
    11    15    16   ar
    12    16    17   ar
    13    17    18    1
    14    17    19   ar
    15    19    20   ar
    16    20    21    1
    17     3     4   ar
    18     4     5   ar
    19     5     6   ar
    20     6    22    1
    21    22    23    1
    22    23    24   ar
    23    24    25   ar
    24    25    26   ar
    25    26    27   ar
    26    27    28    1
    27    27    29   ar
    28     6     1   ar
    29    29    23   ar
    30    20    14   ar
    31     9    10    1
@<TRIPOS>MOLECULE
*****
 29 31 0 0 0
SMALL
GASTEIGER

@<TRIPOS>ATOM
      1 C          64.0982   91.3260   11.8715 C.ar    1  UNL1        0.1041
      2 C          63.3816   90.2048   11.1793 C.ar    1  UNL1        0.0292
      3 C          62.7991   89.0787   11.9810 C.ar    1  UNL1        0.0656
      4 C          62.9332   89.0739   13.4749 C.ar    1  UNL1        0.0190
      5 C          63.6499   90.1951   14.1672 C.ar    1  UNL1        0.0395
      6 C          64.2324   91.3212   13.3655 C.ar    1  UNL1        0.1550
      7 N          65.2632   93.5781   10.2681 N.1     1  UNL1       -0.1907
      8 C          64.6807   92.4521   11.0698 C.1     1  UNL1        0.1035
      9 N          62.0824   87.9575   11.2886 N.pl3   1  UNL1       -0.2150
     10 H          61.4333   88.1544   10.5751 H       1  UNL1        0.1737
     11 S          62.3547   86.5362   11.6835 S.O2    1  UNL1        0.0744
     12 O          61.1687   86.0865   10.8829 O.2     1  UNL1       -0.1499
     13 O          63.5408   86.9860   12.4841 O.2     1  UNL1       -0.1499
     14 C          62.6271   85.1150   12.0784 C.ar    1  UNL1        0.1357
     15 C          62.4232   84.6792   13.4992 C.ar    1  UNL1        0.0219
     16 C          62.6955   83.2579   13.8941 C.ar    1  UNL1        0.0128
     17 C          63.1717   82.2726   12.8682 C.ar    1  UNL1        0.0586
     18 CL         63.4440   80.8513   13.2631 Cl      1  UNL1       -0.0822
     19 C          63.3756   82.7084   11.4475 C.ar    1  UNL1        0.0241
     20 C          63.1032   84.1297   11.0526 C.ar    1  UNL1        0.0773
     21 CL         63.3071   84.5655    9.6318 Cl      1  UNL1       -0.0808
     22 O          64.9490   92.4424   14.0578 O.3     1  UNL1       -0.4512
     23 C          66.4478   92.4519   14.1160 C.ar    1  UNL1        0.1652
     24 C          67.2430   91.7003   13.0899 C.ar    1  UNL1        0.1363
     25 N          68.7418   91.7098   13.1481 N.ar    1  UNL1       -0.2382
     26 C          69.4455   92.4707   14.2324 C.ar    1  UNL1        0.1104
     27 C          68.6504   93.2222   15.2585 C.ar    1  UNL1        0.0798
     28 CL         69.3541   93.9831   16.3429 Cl      1  UNL1       -0.0805
     29 C          67.1515   93.2128   15.2004 C.ar    1  UNL1        0.0521
@<TRIPOS>BOND
     1     7     8    3
     2     8     1    1
     3     1     2   ar
     4     2     3   ar
     5     3     9    1
     6     9    11    1
     7    11    12    2
     8    11    13    2
     9    11    14    1
    10    14    15   ar
    11    15    16   ar
    12    16    17   ar
    13    17    18    1
    14    17    19   ar
    15    19    20   ar
    16    20    21    1
    17     3     4   ar
    18     4     5   ar
    19     5     6   ar
    20     6    22    1
    21    22    23    1
    22    23    24   ar
    23    24    25   ar
    24    25    26   ar
    25    26    27   ar
    26    27    28    1
    27    27    29   ar
    28     6     1   ar
    29    29    23   ar
    30    20    14   ar
    31     9    10    1
@<TRIPOS>MOLECULE
*****
 29 31 0 0 0
SMALL
GASTEIGER

@<TRIPOS>ATOM
      1 C          62.6034   85.5358    9.3703 C.ar    1  UNL1        0.1041
      2 C          62.1822   86.9193    9.7682 C.ar    1  UNL1        0.0292
      3 C          62.2328   87.3335   11.2090 C.ar    1  UNL1        0.0656
      4 C          62.7048   86.3642   12.2518 C.ar    1  UNL1        0.0190
      5 C          63.1260   84.9807   11.8539 C.ar    1  UNL1        0.0395
      6 C          63.0754   84.5665   10.4131 C.ar    1  UNL1        0.1550
      7 N          62.5021   84.7075    6.4887 N.1     1  UNL1       -0.1907
      8 C          62.5528   85.1217    7.9295 C.1     1  UNL1        0.1035
      9 N          61.8115   88.7171   11.6069 N.pl3   1  UNL1       -0.2150
     10 H          60.8740   88.9968   11.4973 H       1  UNL1        0.1737
     11 S          62.8187   89.6745   12.1716 S.O2    1  UNL1        0.0744
     12 O          63.6144   88.5213   12.7076 O.2     1  UNL1       -0.1499
     13 O          62.0231   90.8277   11.6357 O.2     1  UNL1       -0.1499
     14 C          63.8259   90.6319   12.7364 C.ar    1  UNL1        0.1357
     15 C          64.1996   90.5579   14.1873 C.ar    1  UNL1        0.0219
     16 C          65.2068   91.5153   14.7521 C.ar    1  UNL1        0.0128
     17 C          65.8404   92.5466   13.8660 C.ar    1  UNL1        0.0586
     18 CL         66.8476   93.5040   14.4308 Cl      1  UNL1       -0.0822
     19 C          65.4667   92.6205   12.4152 C.ar    1  UNL1        0.0241
     20 C          64.4595   91.6631   11.8504 C.ar    1  UNL1        0.0773
     21 CL         64.0859   91.7370   10.3995 Cl      1  UNL1       -0.0808
     22 O          63.4967   83.1829   10.0152 O.3     1  UNL1       -0.4512
     23 C          63.1208   82.0094   10.8705 C.ar    1  UNL1        0.1652
     24 C          63.2751   80.6147   10.3401 C.ar    1  UNL1        0.1363
     25 N          62.8992   79.4412   11.1953 N.ar    1  UNL1       -0.2382
     26 C          62.3691   79.6622   12.5810 C.ar    1  UNL1        0.1104
     27 C          62.2147   81.0568   13.1114 C.ar    1  UNL1        0.0798
     28 CL         61.6846   81.2778   14.4971 Cl      1  UNL1       -0.0805
     29 C          62.5906   82.2304   12.2562 C.ar    1  UNL1        0.0521
@<TRIPOS>BOND
     1     7     8    3
     2     8     1    1
     3     1     2   ar
     4     2     3   ar
     5     3     9    1
     6     9    11    1
     7    11    12    2
     8    11    13    2
     9    11    14    1
    10    14    15   ar
    11    15    16   ar
    12    16    17   ar
    13    17    18    1
    14    17    19   ar
    15    19    20   ar
    16    20    21    1
    17     3     4   ar
    18     4     5   ar
    19     5     6   ar
    20     6    22    1
    21    22    23    1
    22    23    24   ar
    23    24    25   ar
    24    25    26   ar
    25    26    27   ar
    26    27    28    1
    27    27    29   ar
    28     6     1   ar
    29    29    23   ar
    30    20    14   ar
    31     9    10    1
