@<TRIPOS>MOLECULE
*****
 30 33 0 0 0
SMALL
GASTEIGER

@<TRIPOS>ATOM
      1 C          64.4829   89.9814   14.1570 C.ar    1  UNL1        0.0843
      2 N          65.5938   90.9542   14.4205 N.ar    1  UNL1       -0.2438
      3 C          65.6644   91.9026   13.2605 C.ar    1  UNL1        0.0969
      4 C          66.5627   93.0682   12.9703 C.ar    1  UNL1        0.0221
      5 C          66.3937   93.8472   11.6997 C.ar    1  UNL1        0.0200
      6 C          65.3264   93.4606   10.7192 C.ar    1  UNL1        0.0725
      7 N          64.4281   92.2949   11.0094 N.ar    1  UNL1       -0.3507
      8 C          64.5971   91.5159   12.2800 C.ar    1  UNL1        0.0774
      9 C          63.8669   90.3286   12.8341 C.ar    1  UNL1        0.0523
     10 H          63.7276   92.0411   10.3659 H       1  UNL1        0.1660
     11 C          64.0066   86.3220   15.6171 C.ar    1  UNL1        0.1342
     12 C          64.4277   87.4448   14.7159 C.ar    1  UNL1        0.0360
     13 C          64.0618   88.8586   15.0581 C.ar    1  UNL1        0.0221
     14 C          63.2749   89.1497   16.3015 C.ar    1  UNL1        0.0223
     15 C          62.8538   88.0269   17.2026 C.ar    1  UNL1        0.1004
     16 N          63.2197   86.6130   16.8604 N.ar    1  UNL1       -0.2290
     17 C          63.6973   82.5604   14.3904 C.3     1  UNL1        0.0950
     18 C          63.3314   83.9742   14.7327 C.2     1  UNL1        0.2277
     19 O          61.9244   84.4542   14.5329 O.2     1  UNL1       -0.2747
     20 N          64.3726   84.9081   15.2748 N.am    1  UNL1       -0.2693
     21 H          65.2960   84.5931   15.4059 H       1  UNL1        0.1563
     22 C          62.7217   89.6139   12.1800 C.ar    1  UNL1        0.0840
     23 C          61.4468   90.3486   11.8892 C.ar    1  UNL1        0.0192
     24 C          60.3016   89.6339   11.2351 C.ar    1  UNL1        0.0029
     25 C          60.4313   88.1844   10.8720 C.ar    1  UNL1        0.0203
     26 C          61.7062   87.4495   11.1628 C.ar    1  UNL1        0.1249
     27 N          62.8514   88.1642   11.8168 N.ar    1  UNL1       -0.2440
     28 C          61.8360   86.0000   10.7997 C.3     1  UNL1        0.3581
     29 F          61.0483   85.4409    9.6521 F       1  UNL1       -0.1915
     30 F          62.7535   85.1095   11.5840 F       1  UNL1       -0.1915
@<TRIPOS>BOND
     1    17    18    1
     2    18    19    2
     3    18    20   am
     4    20    11    1
     5    11    12   ar
     6    12    13   ar
     7    13     1    1
     8     1     2   ar
     9     2     3   ar
    10     3     4   ar
    11     4     5   ar
    12     5     6   ar
    13     6     7   ar
    14     7     8   ar
    15     8     9   ar
    16     9    22    1
    17    22    23   ar
    18    23    24   ar
    19    24    25   ar
    20    25    26   ar
    21    26    28    1
    22    28    29    1
    23    28    30    1
    24    26    27   ar
    25    13    14   ar
    26    14    15   ar
    27    15    16   ar
    28    16    11   ar
    29     9     1   ar
    30    27    22   ar
    31     8     3    1
    32    20    21    1
    33     7    10    1
@<TRIPOS>MOLECULE
*****
 30 33 0 0 0
SMALL
GASTEIGER

@<TRIPOS>ATOM
      1 C          64.4805   89.8027   14.2444 C.ar    1  UNL1        0.0843
      2 N          65.6134   90.7526   14.4977 N.ar    1  UNL1       -0.2438
      3 C          65.6838   91.7084   13.3438 C.ar    1  UNL1        0.0969
      4 C          66.5991   92.8595   13.0483 C.ar    1  UNL1        0.0221
      5 C          66.4249   93.6513   11.7864 C.ar    1  UNL1        0.0200
      6 C          65.3355   93.2921   10.8198 C.ar    1  UNL1        0.0725
      7 N          64.4202   92.1411   11.1153 N.ar    1  UNL1       -0.3507
      8 C          64.5944   91.3492   12.3773 C.ar    1  UNL1        0.0774
      9 C          63.8507   90.1714   12.9339 C.ar    1  UNL1        0.0523
     10 H          63.7052   91.9053   10.4810 H       1  UNL1        0.1660
     11 C          63.9587   86.1415   15.6844 C.ar    1  UNL1        0.1342
     12 C          64.3866   87.2632   14.7851 C.ar    1  UNL1        0.0360
     13 C          64.0526   88.6809   15.1436 C.ar    1  UNL1        0.0221
     14 C          63.2907   88.9769   16.4013 C.ar    1  UNL1        0.0223
     15 C          62.8628   87.8552   17.3005 C.ar    1  UNL1        0.1004
     16 N          63.1968   86.4375   16.9421 N.ar    1  UNL1       -0.2290
     17 C          63.8436   82.5975   13.9021 C.3     1  UNL1        0.0950
     18 C          63.5097   84.0151   14.2606 C.2     1  UNL1        0.2277
     19 O          62.3926   84.7243   13.5539 O.2     1  UNL1       -0.2747
     20 N          64.2927   84.7238   15.3258 N.am    1  UNL1       -0.2693
     21 H          65.0259   84.2584   15.7897 H       1  UNL1        0.1563
     22 C          62.6824   89.4832   12.2925 C.ar    1  UNL1        0.0840
     23 C          62.9028   88.2695   11.4393 C.ar    1  UNL1        0.0192
     24 C          61.7345   87.5812   10.7979 C.ar    1  UNL1        0.0029
     25 C          60.3456   88.1067   11.0099 C.ar    1  UNL1        0.0203
     26 C          60.1252   89.3205   11.8632 C.ar    1  UNL1        0.1249
     27 N          61.2935   90.0088   12.5045 N.ar    1  UNL1       -0.2440
     28 C          58.7364   89.8461   12.0752 C.3     1  UNL1        0.3581
     29 F          58.3711   91.2172   11.5887 F       1  UNL1       -0.1915
     30 F          57.7129   89.0007   12.7735 F       1  UNL1       -0.1915
@<TRIPOS>BOND
     1    17    18    1
     2    18    19    2
     3    18    20   am
     4    20    11    1
     5    11    12   ar
     6    12    13   ar
     7    13     1    1
     8     1     2   ar
     9     2     3   ar
    10     3     4   ar
    11     4     5   ar
    12     5     6   ar
    13     6     7   ar
    14     7     8   ar
    15     8     9   ar
    16     9    22    1
    17    22    23   ar
    18    23    24   ar
    19    24    25   ar
    20    25    26   ar
    21    26    28    1
    22    28    29    1
    23    28    30    1
    24    26    27   ar
    25    13    14   ar
    26    14    15   ar
    27    15    16   ar
    28    16    11   ar
    29     9     1   ar
    30    27    22   ar
    31     8     3    1
    32    20    21    1
    33     7    10    1
@<TRIPOS>MOLECULE
*****
 30 33 0 0 0
SMALL
GASTEIGER

@<TRIPOS>ATOM
      1 C          63.5128   90.2891   12.5343 C.ar    1  UNL1        0.0843
      2 N          64.0716   91.5195   11.8833 N.ar    1  UNL1       -0.2438
      3 C          65.0617   92.1346   12.8274 C.ar    1  UNL1        0.0969
      4 C          65.9217   93.3590   12.7225 C.ar    1  UNL1        0.0221
      5 C          66.8349   93.7331   13.8521 C.ar    1  UNL1        0.0200
      6 C          66.8880   92.8828   15.0867 C.ar    1  UNL1        0.0725
      7 N          66.0280   91.6584   15.1916 N.ar    1  UNL1       -0.3507
      8 C          65.1148   91.2843   14.0620 C.ar    1  UNL1        0.0774
      9 C          64.1576   90.1437   13.8808 C.ar    1  UNL1        0.0523
     10 H          66.0628   91.1003   16.0019 H       1  UNL1        0.1660
     11 C          61.8560   87.0547   10.9395 C.ar    1  UNL1        0.1342
     12 C          62.8797   87.9776   11.5312 C.ar    1  UNL1        0.0360
     13 C          62.4891   89.3661   11.9426 C.ar    1  UNL1        0.0221
     14 C          61.0746   89.8317   11.7624 C.ar    1  UNL1        0.0223
     15 C          60.0508   88.9087   11.1708 C.ar    1  UNL1        0.1004
     16 N          60.4415   87.5202   10.7593 N.ar    1  UNL1       -0.2290
     17 C          62.8325   83.2142   11.1565 C.3     1  UNL1        0.0950
     18 C          62.4417   84.6027   11.5679 C.2     1  UNL1        0.2277
     19 O          62.2460   84.9279   13.0191 O.2     1  UNL1       -0.2747
     20 N          62.2467   85.6661   10.5281 N.am    1  UNL1       -0.2693
     21 H          62.3752   85.4527    9.5756 H       1  UNL1        0.1563
     22 C          63.8917   89.0498   14.8721 C.ar    1  UNL1        0.0840
     23 C          63.2121   89.3643   16.1718 C.ar    1  UNL1        0.0192
     24 C          62.9463   88.2704   17.1631 C.ar    1  UNL1        0.0029
     25 C          63.3601   86.8619   16.8548 C.ar    1  UNL1        0.0203
     26 C          64.0398   86.5474   15.5551 C.ar    1  UNL1        0.1249
     27 N          64.3056   87.6413   14.5637 N.ar    1  UNL1       -0.2440
     28 C          64.4536   85.1391   15.2467 C.3     1  UNL1        0.3581
     29 F          63.6137   83.9899   15.7200 F       1  UNL1       -0.1915
     30 F          65.7073   84.8798   14.4650 F       1  UNL1       -0.1915
@<TRIPOS>BOND
     1    17    18    1
     2    18    19    2
     3    18    20   am
     4    20    11    1
     5    11    12   ar
     6    12    13   ar
     7    13     1    1
     8     1     2   ar
     9     2     3   ar
    10     3     4   ar
    11     4     5   ar
    12     5     6   ar
    13     6     7   ar
    14     7     8   ar
    15     8     9   ar
    16     9    22    1
    17    22    23   ar
    18    23    24   ar
    19    24    25   ar
    20    25    26   ar
    21    26    28    1
    22    28    29    1
    23    28    30    1
    24    26    27   ar
    25    13    14   ar
    26    14    15   ar
    27    15    16   ar
    28    16    11   ar
    29     9     1   ar
    30    27    22   ar
    31     8     3    1
    32    20    21    1
    33     7    10    1
@<TRIPOS>MOLECULE
*****
 30 33 0 0 0
SMALL
GASTEIGER

@<TRIPOS>ATOM
      1 C          63.4837   90.5044   12.5103 C.ar    1  UNL1        0.0843
      2 N          64.0750   91.7589   11.9388 N.ar    1  UNL1       -0.2438
      3 C          65.1319   92.2462   12.8851 C.ar    1  UNL1        0.0969
      4 C          66.0458   93.4348   12.8432 C.ar    1  UNL1        0.0221
      5 C          67.0217   93.6701   13.9577 C.ar    1  UNL1        0.0200
      6 C          67.0837   92.7168   15.1141 C.ar    1  UNL1        0.0725
      7 N          66.1698   91.5281   15.1560 N.ar    1  UNL1       -0.3507
      8 C          65.1939   91.2928   14.0415 C.ar    1  UNL1        0.0774
      9 C          64.1753   90.2164   13.8099 C.ar    1  UNL1        0.0523
     10 H          66.2105   90.9024   15.9150 H       1  UNL1        0.1660
     11 C          61.6009   87.9823   10.0929 C.ar    1  UNL1        0.1342
     12 C          62.6920   88.8045   10.7122 C.ar    1  UNL1        0.0360
     13 C          62.3926   89.6822   11.8910 C.ar    1  UNL1        0.0221
     14 C          61.0020   89.7379   12.4506 C.ar    1  UNL1        0.0223
     15 C          59.9109   88.9157   11.8314 C.ar    1  UNL1        0.1004
     16 N          60.2103   88.0380   10.6525 N.ar    1  UNL1       -0.2290
     17 C          62.7771   84.8585    7.9462 C.3     1  UNL1        0.0950
     18 C          62.4776   85.7362    9.1251 C.2     1  UNL1        0.2277
     19 O          62.7554   85.2458   10.5152 O.2     1  UNL1       -0.2747
     20 N          61.9003   87.1045    8.9139 N.am    1  UNL1       -0.2693
     21 H          61.7180   87.4264    8.0016 H       1  UNL1        0.1563
     22 C          63.8970   89.0556   14.7183 C.ar    1  UNL1        0.0840
     23 C          63.3061   89.2911   16.0767 C.ar    1  UNL1        0.0192
     24 C          63.0279   88.1304   16.9852 C.ar    1  UNL1        0.0029
     25 C          63.3406   86.7341   16.5352 C.ar    1  UNL1        0.0203
     26 C          63.9315   86.4985   15.1768 C.ar    1  UNL1        0.1249
     27 N          64.2098   87.6592   14.2684 N.ar    1  UNL1       -0.2440
     28 C          64.2443   85.1022   14.7268 C.3     1  UNL1        0.3581
     29 F          65.6627   84.7061   14.4418 F       1  UNL1       -0.1915
     30 F          63.1387   84.1020   14.5618 F       1  UNL1       -0.1915
@<TRIPOS>BOND
     1    17    18    1
     2    18    19    2
     3    18    20   am
     4    20    11    1
     5    11    12   ar
     6    12    13   ar
     7    13     1    1
     8     1     2   ar
     9     2     3   ar
    10     3     4   ar
    11     4     5   ar
    12     5     6   ar
    13     6     7   ar
    14     7     8   ar
    15     8     9   ar
    16     9    22    1
    17    22    23   ar
    18    23    24   ar
    19    24    25   ar
    20    25    26   ar
    21    26    28    1
    22    28    29    1
    23    28    30    1
    24    26    27   ar
    25    13    14   ar
    26    14    15   ar
    27    15    16   ar
    28    16    11   ar
    29     9     1   ar
    30    27    22   ar
    31     8     3    1
    32    20    21    1
    33     7    10    1
@<TRIPOS>MOLECULE
*****
 30 33 0 0 0
SMALL
GASTEIGER

@<TRIPOS>ATOM
      1 C          63.0634   86.5623   12.6017 C.ar    1  UNL1        0.0843
      2 N          63.4074   85.9941   13.9466 N.ar    1  UNL1       -0.2438
      3 C          63.2492   84.5042   13.8746 C.ar    1  UNL1        0.0969
      4 C          63.4503   83.4230   14.8946 C.ar    1  UNL1        0.0221
      5 C          63.2097   81.9893   14.5252 C.ar    1  UNL1        0.0200
      6 C          62.7680   81.6367   13.1358 C.ar    1  UNL1        0.0725
      7 N          62.5669   82.7179   12.1157 N.ar    1  UNL1       -0.3507
      8 C          62.8075   84.1516   12.4851 C.ar    1  UNL1        0.0774
      9 C          62.6927   85.4236   11.6985 C.ar    1  UNL1        0.0523
     10 H          62.2770   82.4865   11.2037 H       1  UNL1        0.1660
     11 C          63.8377   90.4531   12.7137 C.ar    1  UNL1        0.1342
     12 C          63.8149   89.0011   13.0893 C.ar    1  UNL1        0.0360
     13 C          63.0862   88.0144   12.2260 C.ar    1  UNL1        0.0221
     14 C          62.3803   88.4797   10.9871 C.ar    1  UNL1        0.0223
     15 C          62.4031   89.9317   10.6114 C.ar    1  UNL1        0.1004
     16 N          63.1318   90.9184   11.4747 N.ar    1  UNL1       -0.2290
     17 C          66.3538   93.3064   13.8443 C.3     1  UNL1        0.0950
     18 C          65.6250   92.3197   12.9810 C.2     1  UNL1        0.2277
     19 O          65.9547   92.2129   11.5215 O.2     1  UNL1       -0.2747
     20 N          64.5665   91.4398   13.5771 N.am    1  UNL1       -0.2693
     21 H          64.3501   91.5099   14.5349 H       1  UNL1        0.1563
     22 C          62.2796   85.5370   10.2609 C.ar    1  UNL1        0.0840
     23 C          63.1319   84.9311    9.1856 C.ar    1  UNL1        0.0192
     24 C          62.7188   85.0444    7.7481 C.ar    1  UNL1        0.0029
     25 C          61.4534   85.7638    7.3858 C.ar    1  UNL1        0.0203
     26 C          60.6011   86.3698    8.4611 C.ar    1  UNL1        0.1249
     27 N          61.0141   86.2564    9.8987 N.ar    1  UNL1       -0.2440
     28 C          59.3357   87.0892    8.0989 C.3     1  UNL1        0.3581
     29 F          59.2856   88.5876    8.1445 F       1  UNL1       -0.1915
     30 F          58.1204   86.3101    7.6912 F       1  UNL1       -0.1915
@<TRIPOS>BOND
     1    17    18    1
     2    18    19    2
     3    18    20   am
     4    20    11    1
     5    11    12   ar
     6    12    13   ar
     7    13     1    1
     8     1     2   ar
     9     2     3   ar
    10     3     4   ar
    11     4     5   ar
    12     5     6   ar
    13     6     7   ar
    14     7     8   ar
    15     8     9   ar
    16     9    22    1
    17    22    23   ar
    18    23    24   ar
    19    24    25   ar
    20    25    26   ar
    21    26    28    1
    22    28    29    1
    23    28    30    1
    24    26    27   ar
    25    13    14   ar
    26    14    15   ar
    27    15    16   ar
    28    16    11   ar
    29     9     1   ar
    30    27    22   ar
    31     8     3    1
    32    20    21    1
    33     7    10    1
@<TRIPOS>MOLECULE
*****
 30 33 0 0 0
SMALL
GASTEIGER

@<TRIPOS>ATOM
      1 C          63.4832   90.8682   11.2596 C.ar    1  UNL1        0.0843
      2 N          62.7959   91.0252    9.9356 N.ar    1  UNL1       -0.2438
      3 C          61.7442   89.9609    9.8301 C.ar    1  UNL1        0.0969
      4 C          60.7574   89.6285    8.7504 C.ar    1  UNL1        0.0221
      5 C          59.8079   88.4812    8.9296 C.ar    1  UNL1        0.0200
      6 C          59.8452   87.6663   10.1884 C.ar    1  UNL1        0.0725
      7 N          60.8319   87.9988   11.2680 N.ar    1  UNL1       -0.3507
      8 C          61.7814   89.1460   11.0889 C.ar    1  UNL1        0.0774
      9 C          62.8562   89.7068   11.9724 C.ar    1  UNL1        0.0523
     10 H          60.8564   87.4639   12.0943 H       1  UNL1        0.1660
     11 C          66.4804   93.4674   11.3630 C.ar    1  UNL1        0.1342
     12 C          65.3625   92.6130   10.8430 C.ar    1  UNL1        0.0360
     13 C          64.6011   91.7225   11.7796 C.ar    1  UNL1        0.0221
     14 C          64.9577   91.6863   13.2361 C.ar    1  UNL1        0.0223
     15 C          66.0756   92.5406   13.7561 C.ar    1  UNL1        0.1004
     16 N          66.8370   93.4312   12.8195 N.ar    1  UNL1       -0.2290
     17 C          67.3970   96.5388    9.0228 C.3     1  UNL1        0.0950
     18 C          66.6358   95.6482    9.9594 C.2     1  UNL1        0.2277
     19 O          65.2684   96.0479   10.4292 O.2     1  UNL1       -0.2747
     20 N          67.2418   94.3580   10.4263 N.am    1  UNL1       -0.2693
     21 H          68.1392   94.0956   10.1180 H       1  UNL1        0.1563
     22 C          63.2370   89.1958   13.3303 C.ar    1  UNL1        0.0840
     23 C          63.0068   90.0469   14.5437 C.ar    1  UNL1        0.0192
     24 C          63.3876   89.5359   15.9016 C.ar    1  UNL1        0.0029
     25 C          63.9988   88.1737   16.0460 C.ar    1  UNL1        0.0203
     26 C          64.2291   87.3225   14.8326 C.ar    1  UNL1        0.1249
     27 N          63.8483   87.8335   13.4747 N.ar    1  UNL1       -0.2440
     28 C          64.8403   85.9603   14.9769 C.3     1  UNL1        0.3581
     29 F          63.9605   84.7589   15.1577 F       1  UNL1       -0.1915
     30 F          66.3312   85.7994   14.9406 F       1  UNL1       -0.1915
@<TRIPOS>BOND
     1    17    18    1
     2    18    19    2
     3    18    20   am
     4    20    11    1
     5    11    12   ar
     6    12    13   ar
     7    13     1    1
     8     1     2   ar
     9     2     3   ar
    10     3     4   ar
    11     4     5   ar
    12     5     6   ar
    13     6     7   ar
    14     7     8   ar
    15     8     9   ar
    16     9    22    1
    17    22    23   ar
    18    23    24   ar
    19    24    25   ar
    20    25    26   ar
    21    26    28    1
    22    28    29    1
    23    28    30    1
    24    26    27   ar
    25    13    14   ar
    26    14    15   ar
    27    15    16   ar
    28    16    11   ar
    29     9     1   ar
    30    27    22   ar
    31     8     3    1
    32    20    21    1
    33     7    10    1
@<TRIPOS>MOLECULE
*****
 30 33 0 0 0
SMALL
GASTEIGER

@<TRIPOS>ATOM
      1 C          62.1933   88.4559   11.1767 C.ar    1  UNL1        0.0843
      2 N          61.4551   89.4376   10.3157 N.ar    1  UNL1       -0.2438
      3 C          60.6847   88.6643    9.2869 C.ar    1  UNL1        0.0969
      4 C          59.7784   89.1006    8.1742 C.ar    1  UNL1        0.0221
      5 C          59.1343   88.0773    7.2866 C.ar    1  UNL1        0.0200
      6 C          59.3964   86.6177    7.5117 C.ar    1  UNL1        0.0725
      7 N          60.3027   86.1813    8.6244 N.ar    1  UNL1       -0.3507
      8 C          60.9469   87.2046    9.5120 C.ar    1  UNL1        0.0774
      9 C          61.8792   87.0758   10.6799 C.ar    1  UNL1        0.0523
     10 H          60.4748   85.2233    8.7721 H       1  UNL1        0.1660
     11 C          64.3835   90.5582   13.7327 C.ar    1  UNL1        0.1342
     12 C          63.4884   90.2193   12.5778 C.ar    1  UNL1        0.0360
     13 C          63.0885   88.7948   12.3316 C.ar    1  UNL1        0.0221
     14 C          63.5838   87.7091   13.2403 C.ar    1  UNL1        0.0223
     15 C          64.4790   88.0479   14.3953 C.ar    1  UNL1        0.1004
     16 N          64.8789   89.4725   14.6414 N.ar    1  UNL1       -0.2290
     17 C          66.6277   93.8049   14.1490 C.3     1  UNL1        0.0950
     18 C          66.2278   92.3803   13.9028 C.2     1  UNL1        0.2277
     19 O          67.2724   91.3530   13.5807 O.2     1  UNL1       -0.2747
     20 N          64.7834   91.9829   13.9789 N.am    1  UNL1       -0.2693
     21 H          64.0978   92.6571   14.1903 H       1  UNL1        0.1563
     22 C          62.4052   85.7923   11.2509 C.ar    1  UNL1        0.0840
     23 C          63.1958   84.8553   10.3867 C.ar    1  UNL1        0.0192
     24 C          63.7217   83.5718   10.9577 C.ar    1  UNL1        0.0029
     25 C          63.4570   83.2253   12.3929 C.ar    1  UNL1        0.0203
     26 C          62.6664   84.1622   13.2571 C.ar    1  UNL1        0.1249
     27 N          62.1404   85.4458   12.6862 N.ar    1  UNL1       -0.2440
     28 C          62.4016   83.8158   14.6923 C.3     1  UNL1        0.3581
     29 F          62.5078   84.8732   15.7509 F       1  UNL1       -0.1915
     30 F          62.0307   82.4120   15.0689 F       1  UNL1       -0.1915
@<TRIPOS>BOND
     1    17    18    1
     2    18    19    2
     3    18    20   am
     4    20    11    1
     5    11    12   ar
     6    12    13   ar
     7    13     1    1
     8     1     2   ar
     9     2     3   ar
    10     3     4   ar
    11     4     5   ar
    12     5     6   ar
    13     6     7   ar
    14     7     8   ar
    15     8     9   ar
    16     9    22    1
    17    22    23   ar
    18    23    24   ar
    19    24    25   ar
    20    25    26   ar
    21    26    28    1
    22    28    29    1
    23    28    30    1
    24    26    27   ar
    25    13    14   ar
    26    14    15   ar
    27    15    16   ar
    28    16    11   ar
    29     9     1   ar
    30    27    22   ar
    31     8     3    1
    32    20    21    1
    33     7    10    1
@<TRIPOS>MOLECULE
*****
 30 33 0 0 0
SMALL
GASTEIGER

@<TRIPOS>ATOM
      1 C          62.0457   86.6294   11.0869 C.ar    1  UNL1        0.0843
      2 N          61.1585   85.9187   10.1083 N.ar    1  UNL1       -0.2438
      3 C          60.5245   86.9505    9.2232 C.ar    1  UNL1        0.0969
      4 C          59.5600   86.8364    8.0800 C.ar    1  UNL1        0.0221
      5 C          59.0911   88.0707    7.3684 C.ar    1  UNL1        0.0200
      6 C          59.5865   89.4191    7.8000 C.ar    1  UNL1        0.0725
      7 N          60.5509   89.5332    8.9432 N.ar    1  UNL1       -0.3507
      8 C          61.0199   88.2989    9.6547 C.ar    1  UNL1        0.0774
      9 C          61.9601   88.1004   10.8066 C.ar    1  UNL1        0.0523
     10 H          60.8760   90.4183    9.2264 H       1  UNL1        0.1660
     11 C          63.8552   83.8441   13.2589 C.ar    1  UNL1        0.1342
     12 C          63.0276   84.4909   12.1881 C.ar    1  UNL1        0.0360
     13 C          62.8733   85.9826   12.1577 C.ar    1  UNL1        0.0221
     14 C          63.5466   86.8275   13.1983 C.ar    1  UNL1        0.0223
     15 C          64.3742   86.1807   14.2691 C.ar    1  UNL1        0.1004
     16 N          64.5285   84.6890   14.2995 N.ar    1  UNL1       -0.2290
     17 C          63.0515   80.0021   13.8446 C.3     1  UNL1        0.0950
     18 C          62.8972   81.4938   13.8143 C.2     1  UNL1        0.2277
     19 O          61.6306   82.1271   14.3091 O.2     1  UNL1       -0.2747
     20 N          64.0095   82.3523   13.2892 N.am    1  UNL1       -0.2693
     21 H          64.8408   81.9367   12.9645 H       1  UNL1        0.1563
     22 C          62.6870   89.1831   11.5479 C.ar    1  UNL1        0.0840
     23 C          63.3456   90.2982   10.7913 C.ar    1  UNL1        0.0192
     24 C          64.0725   91.3808   11.5326 C.ar    1  UNL1        0.0029
     25 C          64.1408   91.3483   13.0307 C.ar    1  UNL1        0.0203
     26 C          63.4821   90.2331   13.7874 C.ar    1  UNL1        0.1249
     27 N          62.7552   89.1505   13.0461 N.ar    1  UNL1       -0.2440
     28 C          63.5504   90.2005   15.2855 C.3     1  UNL1        0.3581
     29 F          63.2954   88.9177   16.0200 F       1  UNL1       -0.1915
     30 F          63.8736   91.4505   16.0490 F       1  UNL1       -0.1915
@<TRIPOS>BOND
     1    17    18    1
     2    18    19    2
     3    18    20   am
     4    20    11    1
     5    11    12   ar
     6    12    13   ar
     7    13     1    1
     8     1     2   ar
     9     2     3   ar
    10     3     4   ar
    11     4     5   ar
    12     5     6   ar
    13     6     7   ar
    14     7     8   ar
    15     8     9   ar
    16     9    22    1
    17    22    23   ar
    18    23    24   ar
    19    24    25   ar
    20    25    26   ar
    21    26    28    1
    22    28    29    1
    23    28    30    1
    24    26    27   ar
    25    13    14   ar
    26    14    15   ar
    27    15    16   ar
    28    16    11   ar
    29     9     1   ar
    30    27    22   ar
    31     8     3    1
    32    20    21    1
    33     7    10    1
@<TRIPOS>MOLECULE
*****
 30 33 0 0 0
SMALL
GASTEIGER

@<TRIPOS>ATOM
      1 C          61.9411   86.4701   10.7767 C.ar    1  UNL1        0.0843
      2 N          61.0359   85.7632    9.8119 N.ar    1  UNL1       -0.2438
      3 C          60.3798   86.7990    8.9478 C.ar    1  UNL1        0.0969
      4 C          59.3919   86.6896    7.8245 C.ar    1  UNL1        0.0221
      5 C          58.9038   87.9273    7.1318 C.ar    1  UNL1        0.0200
      6 C          59.4036   89.2744    7.5625 C.ar    1  UNL1        0.0725
      7 N          60.3915   89.3838    8.6859 N.ar    1  UNL1       -0.3507
      8 C          60.8796   88.1461    9.3786 C.ar    1  UNL1        0.0774
      9 C          61.8445   87.9428   10.5088 C.ar    1  UNL1        0.0523
     10 H          60.7195   90.2680    8.9686 H       1  UNL1        0.1660
     11 C          63.7592   85.7829   14.2368 C.ar    1  UNL1        0.1342
     12 C          62.9070   86.4343   13.1883 C.ar    1  UNL1        0.0360
     13 C          62.7934   85.8187   11.8252 C.ar    1  UNL1        0.0221
     14 C          63.5319   84.5516   11.5106 C.ar    1  UNL1        0.0223
     15 C          64.3841   83.9001   12.5592 C.ar    1  UNL1        0.1004
     16 N          64.4978   84.5158   13.9222 N.ar    1  UNL1       -0.2290
     17 C          62.9663   86.6981   18.0162 C.3     1  UNL1        0.0950
     18 C          62.8527   86.0824   16.6531 C.2     1  UNL1        0.2277
     19 O          61.7188   85.1505   16.3432 O.2     1  UNL1       -0.2747
     20 N          63.8729   86.3986   15.5999 N.am    1  UNL1       -0.2693
     21 H          64.6171   87.0102   15.8033 H       1  UNL1        0.1563
     22 C          62.5832   89.0227   11.2425 C.ar    1  UNL1        0.0840
     23 C          63.2292   90.1409   10.4796 C.ar    1  UNL1        0.0192
     24 C          63.9679   91.2208   11.2132 C.ar    1  UNL1        0.0029
     25 C          64.0606   91.1825   12.7099 C.ar    1  UNL1        0.0203
     26 C          63.4145   90.0642   13.4729 C.ar    1  UNL1        0.1249
     27 N          62.6759   88.9843   12.7392 N.ar    1  UNL1       -0.2440
     28 C          63.5071   90.0258   14.9695 C.3     1  UNL1        0.3581
     29 F          62.4355   89.3469   15.7699 F       1  UNL1       -0.1915
     30 F          64.6713   90.6662   15.6656 F       1  UNL1       -0.1915
@<TRIPOS>BOND
     1    17    18    1
     2    18    19    2
     3    18    20   am
     4    20    11    1
     5    11    12   ar
     6    12    13   ar
     7    13     1    1
     8     1     2   ar
     9     2     3   ar
    10     3     4   ar
    11     4     5   ar
    12     5     6   ar
    13     6     7   ar
    14     7     8   ar
    15     8     9   ar
    16     9    22    1
    17    22    23   ar
    18    23    24   ar
    19    24    25   ar
    20    25    26   ar
    21    26    28    1
    22    28    29    1
    23    28    30    1
    24    26    27   ar
    25    13    14   ar
    26    14    15   ar
    27    15    16   ar
    28    16    11   ar
    29     9     1   ar
    30    27    22   ar
    31     8     3    1
    32    20    21    1
    33     7    10    1
