@<TRIPOS>MOLECULE
*****
 30 34 0 0 0
SMALL
GASTEIGER

@<TRIPOS>ATOM
      1 C          63.4920   84.7995   13.1898 C.ar    1  UNL1        0.1389
      2 C          63.5364   86.2953   13.0868 C.ar    1  UNL1        0.0397
      3 C          62.8533   86.9891   11.9458 C.ar    1  UNL1        0.0350
      4 C          62.1257   86.1872   10.9078 C.ar    1  UNL1        0.0778
      5 C          62.0813   84.6915   11.0108 C.ar    1  UNL1        0.0219
      6 C          62.7644   83.9976   12.1518 C.ar    1  UNL1        0.0394
      7 N          61.4426   86.8811    9.7668 N.2     1  UNL1       -0.2641
      8 C          61.4871   88.3769    9.6638 C.3     1  UNL1        0.1696
      9 C          62.2146   89.1789   10.7019 C.2     1  UNL1        0.0908
     10 N          62.4275   90.6550   10.8628 N.am    1  UNL1       -0.1630
     11 C          63.2421   90.8733   12.1032 C.2     1  UNL1        0.3313
     12 O          63.6878   92.1999   12.6431 O.2     1  UNL1       -0.2501
     13 N          63.5327   89.5323   12.7090 N.am    1  UNL1       -0.2363
     14 C          62.8978   88.4850   11.8429 C.2     1  UNL1        0.0704
     15 C          62.7200   82.5017   12.2547 C.ar    1  UNL1        0.0526
     16 C          62.1126   81.7128   13.3766 C.ar    1  UNL1        0.1007
     17 C          61.4430   82.2812   14.5925 C.3     1  UNL1        0.0557
     18 N          62.2923   80.2558   13.0690 N.ar    1  UNL1       -0.0817
     19 O          63.0109   80.1441   11.7570 O.2     1  UNL1       -0.3581
     20 C          63.2752   81.5322   11.2537 C.ar    1  UNL1        0.1545
     21 C          63.9722   81.8883    9.9742 C.3     1  UNL1        0.0754
     22 C          64.0445   84.6464   15.7238 C.3     1  UNL1        0.2525
     23 O          64.1751   84.1056   14.3308 O.3     1  UNL1       -0.4714
     24 C          64.3202   89.2823   13.9609 C.3     1  UNL1        0.1264
     25 C          64.9259   90.4331   14.7083 C.ar    1  UNL1       -0.0019
     26 C          66.2846   90.9424   14.3280 C.ar    1  UNL1       -0.0026
     27 C          66.8904   92.0933   15.0754 C.ar    1  UNL1       -0.0003
     28 C          66.1376   92.7348   16.2031 C.ar    1  UNL1       -0.0000
     29 C          64.7789   92.2255   16.5834 C.ar    1  UNL1       -0.0003
     30 C          64.1730   91.0746   15.8360 C.ar    1  UNL1       -0.0026
@<TRIPOS>BOND
     1    22    23    1
     2    23     1    1
     3     1     2   ar
     4     2     3   ar
     5     3     4   ar
     6     4     5   ar
     7     5     6   ar
     8     6    15    1
     9    15    16   ar
    10    16    17    1
    11    16    18   ar
    12    18    19   ar
    13    19    20   ar
    14    20    21    1
    15     4     7    2
    16     7     8    1
    17     8     9    1
    18     9    10    2
    19    10    11    1
    20    11    12    2
    21    11    13   am
    22    13    24    1
    23    24    25    1
    24    25    26   ar
    25    26    27   ar
    26    27    28   ar
    27    28    29   ar
    28    29    30   ar
    29    13    14    1
    30     6     1   ar
    31    20    15   ar
    32    14     9    1
    33    14     3    2
    34    30    25   ar
@<TRIPOS>MOLECULE
*****
 30 34 0 0 0
SMALL
GASTEIGER

@<TRIPOS>ATOM
      1 C          64.2652   89.3775   13.8736 C.ar    1  UNL1        0.1389
      2 C          63.3818   88.6960   12.8711 C.ar    1  UNL1        0.0397
      3 C          62.9454   89.4274   11.6363 C.ar    1  UNL1        0.0350
      4 C          63.3923   90.8403   11.4041 C.ar    1  UNL1        0.0778
      5 C          64.2757   91.5218   12.4066 C.ar    1  UNL1        0.0219
      6 C          64.7122   90.7904   13.6414 C.ar    1  UNL1        0.0394
      7 N          62.9558   91.5716   10.1694 N.2     1  UNL1       -0.2641
      8 C          62.0724   90.8901    9.1668 C.3     1  UNL1        0.1696
      9 C          61.6255   89.4772    9.3990 C.2     1  UNL1        0.0908
     10 N          60.7601   88.5531    8.5945 N.am    1  UNL1       -0.1630
     11 C          60.6617   87.2507    9.3320 C.2     1  UNL1        0.3313
     12 O          59.8936   86.0415    8.8873 O.2     1  UNL1       -0.2501
     13 N          61.4663   87.3698   10.5923 N.am    1  UNL1       -0.2363
     14 C          62.0619   88.7458   10.6338 C.2     1  UNL1        0.0704
     15 C          65.5956   91.4720   14.6439 C.ar    1  UNL1        0.0526
     16 C          67.0298   91.8591   14.4361 C.ar    1  UNL1        0.1007
     17 C          67.8324   91.6328   13.1893 C.3     1  UNL1        0.0557
     18 N          67.5205   92.5125   15.6941 N.ar    1  UNL1       -0.0817
     19 O          66.3895   92.5291   16.6794 O.2     1  UNL1       -0.3581
     20 C          65.1999   91.8860   16.0303 C.ar    1  UNL1        0.1545
     21 C          63.8514   91.6912   16.6575 C.3     1  UNL1        0.0754
     22 C          64.3367   87.2031   15.2937 C.3     1  UNL1        0.2525
     23 O          64.7017   88.6461   15.1083 O.3     1  UNL1       -0.4714
     24 C          61.6440   86.3005   11.6292 C.3     1  UNL1        0.1264
     25 C          62.5992   85.1701   11.3848 C.ar    1  UNL1       -0.0019
     26 C          62.9370   84.7639    9.9809 C.ar    1  UNL1       -0.0026
     27 C          63.8922   83.6336    9.7364 C.ar    1  UNL1       -0.0003
     28 C          64.5097   82.9093   10.8958 C.ar    1  UNL1       -0.0000
     29 C          64.1719   83.3155   12.2997 C.ar    1  UNL1       -0.0003
     30 C          63.2167   84.4459   12.5442 C.ar    1  UNL1       -0.0026
@<TRIPOS>BOND
     1    22    23    1
     2    23     1    1
     3     1     2   ar
     4     2     3   ar
     5     3     4   ar
     6     4     5   ar
     7     5     6   ar
     8     6    15    1
     9    15    16   ar
    10    16    17    1
    11    16    18   ar
    12    18    19   ar
    13    19    20   ar
    14    20    21    1
    15     4     7    2
    16     7     8    1
    17     8     9    1
    18     9    10    2
    19    10    11    1
    20    11    12    2
    21    11    13   am
    22    13    24    1
    23    24    25    1
    24    25    26   ar
    25    26    27   ar
    26    27    28   ar
    27    28    29   ar
    28    29    30   ar
    29    13    14    1
    30     6     1   ar
    31    20    15   ar
    32    14     9    1
    33    14     3    2
    34    30    25   ar
@<TRIPOS>MOLECULE
*****
 30 34 0 0 0
SMALL
GASTEIGER

@<TRIPOS>ATOM
      1 C          63.4848   84.8127   13.1936 C.ar    1  UNL1        0.1389
      2 C          63.5336   86.3084   13.0921 C.ar    1  UNL1        0.0397
      3 C          62.8574   87.0050   11.9487 C.ar    1  UNL1        0.0350
      4 C          62.1324   86.2059   10.9067 C.ar    1  UNL1        0.0778
      5 C          62.0836   84.7102   11.0082 C.ar    1  UNL1        0.0219
      6 C          62.7598   84.0136   12.1517 C.ar    1  UNL1        0.0394
      7 N          61.4562   86.9025    9.7633 N.2     1  UNL1       -0.2641
      8 C          61.5050   88.3982    9.6617 C.3     1  UNL1        0.1696
      9 C          62.2300   89.1974   10.7037 C.2     1  UNL1        0.0908
     10 N          62.4460   90.6728   10.8668 N.am    1  UNL1       -0.1630
     11 C          63.2556   90.8880   12.1109 C.2     1  UNL1        0.3313
     12 O          63.7024   92.2130   12.6539 O.2     1  UNL1       -0.2501
     13 N          63.5401   89.5458   12.7169 N.am    1  UNL1       -0.2363
     14 C          62.9062   88.5009   11.8472 C.2     1  UNL1        0.0704
     15 C          62.7109   82.5178   12.2532 C.ar    1  UNL1        0.0526
     16 C          63.2682   81.5476   11.2541 C.ar    1  UNL1        0.1007
     17 C          63.9722   81.9028    9.9781 C.3     1  UNL1        0.0557
     18 N          62.9980   80.1598   11.7551 N.ar    1  UNL1       -0.0817
     19 O          62.2736   80.2722   13.0638 O.2     1  UNL1       -0.3581
     20 C          62.0962   81.7295   13.3716 C.ar    1  UNL1        0.1545
     21 C          61.4224   82.2987   14.5849 C.3     1  UNL1        0.0754
     22 C          64.0507   84.6730   15.7255 C.3     1  UNL1        0.2525
     23 O          64.1610   84.1161   14.3371 O.3     1  UNL1       -0.4714
     24 C          64.3212   89.2927   13.9722 C.3     1  UNL1        0.1264
     25 C          64.9361   90.4402   14.7171 C.ar    1  UNL1       -0.0019
     26 C          66.2978   90.9395   14.3342 C.ar    1  UNL1       -0.0026
     27 C          66.9128   92.0870   15.0790 C.ar    1  UNL1       -0.0003
     28 C          66.1661   92.7355   16.2069 C.ar    1  UNL1       -0.0000
     29 C          64.8044   92.2362   16.5898 C.ar    1  UNL1       -0.0003
     30 C          64.1894   91.0886   15.8449 C.ar    1  UNL1       -0.0026
@<TRIPOS>BOND
     1    22    23    1
     2    23     1    1
     3     1     2   ar
     4     2     3   ar
     5     3     4   ar
     6     4     5   ar
     7     5     6   ar
     8     6    15    1
     9    15    16   ar
    10    16    17    1
    11    16    18   ar
    12    18    19   ar
    13    19    20   ar
    14    20    21    1
    15     4     7    2
    16     7     8    1
    17     8     9    1
    18     9    10    2
    19    10    11    1
    20    11    12    2
    21    11    13   am
    22    13    24    1
    23    24    25    1
    24    25    26   ar
    25    26    27   ar
    26    27    28   ar
    27    28    29   ar
    28    29    30   ar
    29    13    14    1
    30     6     1   ar
    31    20    15   ar
    32    14     9    1
    33    14     3    2
    34    30    25   ar
@<TRIPOS>MOLECULE
*****
 30 34 0 0 0
SMALL
GASTEIGER

@<TRIPOS>ATOM
      1 C          61.4624   88.8536   11.6320 C.ar    1  UNL1        0.1389
      2 C          62.2941   89.5977   12.6342 C.ar    1  UNL1        0.0397
      3 C          63.3608   90.5440   12.1689 C.ar    1  UNL1        0.0350
      4 C          63.5959   90.7462   10.7013 C.ar    1  UNL1        0.0778
      5 C          62.7642   90.0020    9.6991 C.ar    1  UNL1        0.0219
      6 C          61.6974   89.0557   10.1644 C.ar    1  UNL1        0.0394
      7 N          64.6626   91.6925   10.2359 N.2     1  UNL1       -0.2641
      8 C          65.4943   92.4367   11.2381 C.3     1  UNL1        0.1696
      9 C          65.2592   92.2345   12.7058 C.2     1  UNL1        0.0908
     10 N          65.9165   92.8246   13.9182 N.am    1  UNL1       -0.1630
     11 C          65.2560   92.2429   15.1328 C.2     1  UNL1        0.3313
     12 O          65.6004   92.5558   16.5588 O.2     1  UNL1       -0.2501
     13 N          64.1905   91.2934   14.6712 N.am    1  UNL1       -0.2363
     14 C          64.1925   91.2882   13.1712 C.2     1  UNL1        0.0704
     15 C          60.8657   88.3115    9.1621 C.ar    1  UNL1        0.0526
     16 C          59.8545   88.9154    8.2333 C.ar    1  UNL1        0.1007
     17 C          59.4974   90.3695    8.1437 C.3     1  UNL1        0.0557
     18 N          59.2631   87.8100    7.4099 N.ar    1  UNL1       -0.0817
     19 O          59.9088   86.5228    7.8297 O.2     1  UNL1       -0.3581
     20 C          60.8993   86.8328    8.9127 C.ar    1  UNL1        0.1545
     21 C          61.7704   85.8386    9.6217 C.3     1  UNL1        0.0754
     22 C          59.0263   88.4236   12.4260 C.3     1  UNL1        0.2525
     23 O          60.3957   87.9072   12.0974 O.3     1  UNL1       -0.4714
     24 C          63.2824   90.4901   15.5544 C.3     1  UNL1        0.1264
     25 C          63.5125   89.0178   15.7255 C.ar    1  UNL1       -0.0019
     26 C          64.3730   88.2745   14.7473 C.ar    1  UNL1       -0.0026
     27 C          64.6032   86.8021   14.9184 C.ar    1  UNL1       -0.0003
     28 C          63.9727   86.0730   16.0677 C.ar    1  UNL1       -0.0000
     29 C          63.1121   86.8164   17.0459 C.ar    1  UNL1       -0.0003
     30 C          62.8820   88.2888   16.8749 C.ar    1  UNL1       -0.0026
@<TRIPOS>BOND
     1    22    23    1
     2    23     1    1
     3     1     2   ar
     4     2     3   ar
     5     3     4   ar
     6     4     5   ar
     7     5     6   ar
     8     6    15    1
     9    15    16   ar
    10    16    17    1
    11    16    18   ar
    12    18    19   ar
    13    19    20   ar
    14    20    21    1
    15     4     7    2
    16     7     8    1
    17     8     9    1
    18     9    10    2
    19    10    11    1
    20    11    12    2
    21    11    13   am
    22    13    24    1
    23    24    25    1
    24    25    26   ar
    25    26    27   ar
    26    27    28   ar
    27    28    29   ar
    28    29    30   ar
    29    13    14    1
    30     6     1   ar
    31    20    15   ar
    32    14     9    1
    33    14     3    2
    34    30    25   ar
@<TRIPOS>MOLECULE
*****
 30 34 0 0 0
SMALL
GASTEIGER

@<TRIPOS>ATOM
      1 C          61.3401   88.8798   11.5994 C.ar    1  UNL1        0.1389
      2 C          62.1991   89.5965   12.5986 C.ar    1  UNL1        0.0397
      3 C          63.2870   90.5165   12.1295 C.ar    1  UNL1        0.0350
      4 C          63.5159   90.7198   10.6611 C.ar    1  UNL1        0.0778
      5 C          62.6569   90.0031    9.6619 C.ar    1  UNL1        0.0219
      6 C          61.5690   89.0831   10.1310 C.ar    1  UNL1        0.0394
      7 N          64.6038   91.6398   10.1919 N.2     1  UNL1       -0.2641
      8 C          65.4627   92.3565   11.1912 C.3     1  UNL1        0.1696
      9 C          65.2338   92.1532   12.6597 C.2     1  UNL1        0.0908
     10 N          65.9160   92.7193   13.8697 N.am    1  UNL1       -0.1630
     11 C          65.2497   92.1492   15.0866 C.2     1  UNL1        0.3313
     12 O          65.6134   92.4456   16.5113 O.2     1  UNL1       -0.2501
     13 N          64.1558   91.2308   14.6288 N.am    1  UNL1       -0.2363
     14 C          64.1460   91.2332   13.1288 C.2     1  UNL1        0.0704
     15 C          60.7100   88.3665    9.1317 C.ar    1  UNL1        0.0526
     16 C          60.6520   86.8823    8.9225 C.ar    1  UNL1        0.1007
     17 C          61.4428   85.8541    9.6759 C.3     1  UNL1        0.0557
     18 N          59.6644   86.6067    7.8277 N.ar    1  UNL1       -0.0817
     19 O          59.1120   87.9207    7.3602 O.2     1  UNL1       -0.3581
     20 C          59.7583   89.0082    8.1661 C.ar    1  UNL1        0.1545
     21 C          59.4984   90.4793    8.0303 C.3     1  UNL1        0.0754
     22 C          58.9157   88.5170   12.4600 C.3     1  UNL1        0.2525
     23 O          60.2522   87.9598   12.0686 O.3     1  UNL1       -0.4714
     24 C          63.2335   90.4474   15.5152 C.3     1  UNL1        0.1264
     25 C          63.4634   88.9803   15.7269 C.ar    1  UNL1       -0.0019
     26 C          64.2582   88.1937   14.7271 C.ar    1  UNL1       -0.0026
     27 C          64.4880   86.7267   14.9388 C.ar    1  UNL1       -0.0003
     28 C          63.9231   86.0461   16.1502 C.ar    1  UNL1       -0.0000
     29 C          63.1283   86.8326   17.1500 C.ar    1  UNL1       -0.0003
     30 C          62.8984   88.2998   16.9384 C.ar    1  UNL1       -0.0026
@<TRIPOS>BOND
     1    22    23    1
     2    23     1    1
     3     1     2   ar
     4     2     3   ar
     5     3     4   ar
     6     4     5   ar
     7     5     6   ar
     8     6    15    1
     9    15    16   ar
    10    16    17    1
    11    16    18   ar
    12    18    19   ar
    13    19    20   ar
    14    20    21    1
    15     4     7    2
    16     7     8    1
    17     8     9    1
    18     9    10    2
    19    10    11    1
    20    11    12    2
    21    11    13   am
    22    13    24    1
    23    24    25    1
    24    25    26   ar
    25    26    27   ar
    26    27    28   ar
    27    28    29   ar
    28    29    30   ar
    29    13    14    1
    30     6     1   ar
    31    20    15   ar
    32    14     9    1
    33    14     3    2
    34    30    25   ar
@<TRIPOS>MOLECULE
*****
 30 34 0 0 0
SMALL
GASTEIGER

@<TRIPOS>ATOM
      1 C          63.8585   88.3734   13.3067 C.ar    1  UNL1        0.1389
      2 C          63.3811   87.5727   12.1317 C.ar    1  UNL1        0.0397
      3 C          62.3203   88.1270   11.2276 C.ar    1  UNL1        0.0350
      4 C          61.7369   89.4821   11.4985 C.ar    1  UNL1        0.0778
      5 C          62.2144   90.2828   12.6736 C.ar    1  UNL1        0.0219
      6 C          63.2752   89.7285   13.5777 C.ar    1  UNL1        0.0394
      7 N          60.6761   90.0364   10.5944 N.2     1  UNL1       -0.2641
      8 C          60.1987   89.2357    9.4193 C.3     1  UNL1        0.1696
      9 C          60.7820   87.8805    9.1484 C.2     1  UNL1        0.0908
     10 N          60.5123   86.8680    8.0750 N.am    1  UNL1       -0.1630
     11 C          61.4065   85.6880    8.3157 C.2     1  UNL1        0.3313
     12 O          61.4676   84.4433    7.4809 O.2     1  UNL1       -0.2501
     13 N          62.2287   85.9711    9.5378 N.am    1  UNL1       -0.2363
     14 C          61.8428   87.3262   10.0525 C.2     1  UNL1        0.0704
     15 C          63.7526   90.5293   14.7528 C.ar    1  UNL1        0.0526
     16 C          64.6737   91.7120   14.6981 C.ar    1  UNL1        0.1007
     17 C          65.2790   92.3015   13.4587 C.3     1  UNL1        0.0557
     18 N          64.8831   92.2016   16.1004 N.ar    1  UNL1       -0.0817
     19 O          64.0915   91.3215   17.0218 O.2     1  UNL1       -0.3581
     20 C          63.3929   90.2880   16.1889 C.ar    1  UNL1        0.1545
     21 C          62.4925   89.2036   16.7020 C.3     1  UNL1        0.0754
     22 C          64.6603   86.5632   14.9891 C.3     1  UNL1        0.2525
     23 O          64.9193   87.8191   14.2109 O.3     1  UNL1       -0.4714
     24 C          63.2565   85.0593   10.1397 C.3     1  UNL1        0.1264
     25 C          62.8840   84.1579   11.2793 C.ar    1  UNL1       -0.0019
     26 C          62.5798   84.7403   12.6278 C.ar    1  UNL1       -0.0026
     27 C          62.2073   83.8390   13.7674 C.ar    1  UNL1       -0.0003
     28 C          62.1390   82.3551   13.5587 C.ar    1  UNL1       -0.0000
     29 C          62.4431   81.7727   12.2102 C.ar    1  UNL1       -0.0003
     30 C          62.8157   82.6740   11.0705 C.ar    1  UNL1       -0.0026
@<TRIPOS>BOND
     1    22    23    1
     2    23     1    1
     3     1     2   ar
     4     2     3   ar
     5     3     4   ar
     6     4     5   ar
     7     5     6   ar
     8     6    15    1
     9    15    16   ar
    10    16    17    1
    11    16    18   ar
    12    18    19   ar
    13    19    20   ar
    14    20    21    1
    15     4     7    2
    16     7     8    1
    17     8     9    1
    18     9    10    2
    19    10    11    1
    20    11    12    2
    21    11    13   am
    22    13    24    1
    23    24    25    1
    24    25    26   ar
    25    26    27   ar
    26    27    28   ar
    27    28    29   ar
    28    29    30   ar
    29    13    14    1
    30     6     1   ar
    31    20    15   ar
    32    14     9    1
    33    14     3    2
    34    30    25   ar
@<TRIPOS>MOLECULE
*****
 30 34 0 0 0
SMALL
GASTEIGER

@<TRIPOS>ATOM
      1 C          63.5832   84.5578   13.0048 C.ar    1  UNL1        0.1389
      2 C          63.6154   86.0569   12.9629 C.ar    1  UNL1        0.0397
      3 C          62.8018   86.7963   11.9424 C.ar    1  UNL1        0.0350
      4 C          61.9560   86.0367   10.9639 C.ar    1  UNL1        0.0778
      5 C          61.9238   84.5377   11.0058 C.ar    1  UNL1        0.0219
      6 C          62.7374   83.7982   12.0262 C.ar    1  UNL1        0.0394
      7 N          61.1424   86.7762    9.9435 N.2     1  UNL1       -0.2641
      8 C          61.1746   88.2752    9.9016 C.3     1  UNL1        0.1696
      9 C          62.0205   89.0349   10.8802 C.2     1  UNL1        0.0908
     10 N          62.2513   90.5036   11.0792 N.am    1  UNL1       -0.1630
     11 C          63.2074   90.6718   12.2225 C.2     1  UNL1        0.3313
     12 O          63.7144   91.9759   12.7633 O.2     1  UNL1       -0.2501
     13 N          63.5677   89.3072   12.7302 N.am    1  UNL1       -0.2363
     14 C          62.8341   88.2954   11.9006 C.2     1  UNL1        0.0704
     15 C          62.7051   82.2991   12.0681 C.ar    1  UNL1        0.0526
     16 C          63.2653   81.3758   11.0272 C.ar    1  UNL1        0.1007
     17 C          63.9561   81.7893    9.7616 C.3     1  UNL1        0.0557
     18 N          63.0134   79.9662   11.4740 N.ar    1  UNL1       -0.0817
     19 O          62.2974   80.0184   12.7912 O.2     1  UNL1       -0.3581
     20 C          62.1069   81.4602   13.1583 C.ar    1  UNL1        0.1545
     21 C          61.4360   81.9731   14.3980 C.3     1  UNL1        0.0754
     22 C          65.6887   84.3993   14.5186 C.3     1  UNL1        0.2525
     23 O          64.3968   83.8184   14.0252 O.3     1  UNL1       -0.4714
     24 C          64.4981   89.0069   13.8678 C.3     1  UNL1        0.1264
     25 C          63.9544   88.4780   15.1619 C.ar    1  UNL1       -0.0019
     26 C          64.0226   87.0095   15.4597 C.ar    1  UNL1       -0.0026
     27 C          63.4789   86.4806   16.7537 C.ar    1  UNL1       -0.0003
     28 C          62.8669   87.4202   17.7500 C.ar    1  UNL1       -0.0000
     29 C          62.7986   88.8887   17.4522 C.ar    1  UNL1       -0.0003
     30 C          63.3424   89.4177   16.1581 C.ar    1  UNL1       -0.0026
@<TRIPOS>BOND
     1    22    23    1
     2    23     1    1
     3     1     2   ar
     4     2     3   ar
     5     3     4   ar
     6     4     5   ar
     7     5     6   ar
     8     6    15    1
     9    15    16   ar
    10    16    17    1
    11    16    18   ar
    12    18    19   ar
    13    19    20   ar
    14    20    21    1
    15     4     7    2
    16     7     8    1
    17     8     9    1
    18     9    10    2
    19    10    11    1
    20    11    12    2
    21    11    13   am
    22    13    24    1
    23    24    25    1
    24    25    26   ar
    25    26    27   ar
    26    27    28   ar
    27    28    29   ar
    28    29    30   ar
    29    13    14    1
    30     6     1   ar
    31    20    15   ar
    32    14     9    1
    33    14     3    2
    34    30    25   ar
@<TRIPOS>MOLECULE
*****
 30 34 0 0 0
SMALL
GASTEIGER

@<TRIPOS>ATOM
      1 C          60.9815   86.7559   11.1432 C.ar    1  UNL1        0.1389
      2 C          61.5978   85.6388   11.9320 C.ar    1  UNL1        0.0397
      3 C          62.5607   84.6969   11.2720 C.ar    1  UNL1        0.0350
      4 C          62.9074   84.8721    9.8232 C.ar    1  UNL1        0.0778
      5 C          62.2911   85.9892    9.0344 C.ar    1  UNL1        0.0219
      6 C          61.3282   86.9311    9.6944 C.ar    1  UNL1        0.0394
      7 N          63.8703   83.9302    9.1632 N.2     1  UNL1       -0.2641
      8 C          64.4866   82.8131    9.9520 C.3     1  UNL1        0.1696
      9 C          64.1399   82.6378   11.4009 C.2     1  UNL1        0.0908
     10 N          64.5855   81.6372   12.4257 N.am    1  UNL1       -0.1630
     11 C          63.8980   81.9606   13.7189 C.2     1  UNL1        0.3313
     12 O          64.0536   81.2145   15.0108 O.2     1  UNL1       -0.2501
     13 N          63.0275   83.1611   13.4935 N.am    1  UNL1       -0.2363
     14 C          63.1770   83.5797   12.0609 C.2     1  UNL1        0.0704
     15 C          60.7119   88.0482    8.9055 C.ar    1  UNL1        0.0526
     16 C          59.5902   87.9163    7.9185 C.ar    1  UNL1        0.1007
     17 C          58.8877   86.6441    7.5470 C.3     1  UNL1        0.0557
     18 N          59.2942   89.2799    7.3682 N.ar    1  UNL1       -0.0817
     19 O          60.2331   90.2547    8.0151 O.2     1  UNL1       -0.3581
     20 C          61.1093   89.4934    8.9652 C.ar    1  UNL1        0.1545
     21 C          62.1926   90.0752    9.8242 C.3     1  UNL1        0.0754
     22 C          60.5073   89.0025   12.3587 C.3     1  UNL1        0.2525
     23 O          60.0186   87.6978   11.8032 O.3     1  UNL1       -0.4714
     24 C          62.1598   83.8264   14.5204 C.3     1  UNL1        0.1264
     25 C          62.6574   85.0379   15.2516 C.ar    1  UNL1       -0.0019
     26 C          62.0735   85.4019   16.5845 C.ar    1  UNL1       -0.0026
     27 C          62.5710   86.6134   17.3157 C.ar    1  UNL1       -0.0003
     28 C          63.6525   87.4610   16.7140 C.ar    1  UNL1       -0.0000
     29 C          64.2365   87.0970   15.3812 C.ar    1  UNL1       -0.0003
     30 C          63.7389   85.8854   14.6499 C.ar    1  UNL1       -0.0026
@<TRIPOS>BOND
     1    22    23    1
     2    23     1    1
     3     1     2   ar
     4     2     3   ar
     5     3     4   ar
     6     4     5   ar
     7     5     6   ar
     8     6    15    1
     9    15    16   ar
    10    16    17    1
    11    16    18   ar
    12    18    19   ar
    13    19    20   ar
    14    20    21    1
    15     4     7    2
    16     7     8    1
    17     8     9    1
    18     9    10    2
    19    10    11    1
    20    11    12    2
    21    11    13   am
    22    13    24    1
    23    24    25    1
    24    25    26   ar
    25    26    27   ar
    26    27    28   ar
    27    28    29   ar
    28    29    30   ar
    29    13    14    1
    30     6     1   ar
    31    20    15   ar
    32    14     9    1
    33    14     3    2
    34    30    25   ar
@<TRIPOS>MOLECULE
*****
 30 34 0 0 0
SMALL
GASTEIGER

@<TRIPOS>ATOM
      1 C          63.8385   89.9155   12.9066 C.ar    1  UNL1        0.1389
      2 C          63.3976   88.5446   12.4870 C.ar    1  UNL1        0.0397
      3 C          63.7934   87.3479   13.3001 C.ar    1  UNL1        0.0350
      4 C          64.6301   87.5221   14.5328 C.ar    1  UNL1        0.0778
      5 C          65.0709   88.8930   14.9524 C.ar    1  UNL1        0.0219
      6 C          64.6751   90.0898   14.1393 C.ar    1  UNL1        0.0394
      7 N          65.0259   86.3253   15.3460 N.2     1  UNL1       -0.2641
      8 C          64.5850   84.9544   14.9264 C.3     1  UNL1        0.1696
      9 C          63.7483   84.7801   13.6936 C.2     1  UNL1        0.0908
     10 N          63.1692   83.5619   13.0375 N.am    1  UNL1       -0.1630
     11 C          62.4155   84.0057   11.8190 C.2     1  UNL1        0.3313
     12 O          61.6779   83.1136   10.8651 O.2     1  UNL1       -0.2501
     13 N          62.5288   85.4982   11.7219 N.am    1  UNL1       -0.2363
     14 C          63.3526   85.9769   12.8805 C.2     1  UNL1        0.0704
     15 C          65.1160   91.4608   14.5590 C.ar    1  UNL1        0.0526
     16 C          65.9951   92.3845   13.7691 C.ar    1  UNL1        0.1007
     17 C          66.5878   92.0995   12.4210 C.3     1  UNL1        0.0557
     18 N          66.1776   93.6433   14.5642 N.ar    1  UNL1       -0.0817
     19 O          65.4112   93.4976   15.8454 O.2     1  UNL1       -0.3581
     20 C          64.7552   92.1487   15.8422 C.ar    1  UNL1        0.1545
     21 C          63.8901   91.5865   16.9310 C.3     1  UNL1        0.0754
     22 C          63.0764   90.9491   10.6481 C.3     1  UNL1        0.2525
     23 O          63.4427   91.1123   12.0935 O.3     1  UNL1       -0.4714
     24 C          61.9244   86.3607   10.6538 C.3     1  UNL1        0.1264
     25 C          61.8220   85.8509    9.2468 C.ar    1  UNL1       -0.0019
     26 C          63.0206   85.2435    8.5801 C.ar    1  UNL1       -0.0026
     27 C          62.9183   84.7337    7.1731 C.ar    1  UNL1       -0.0003
     28 C          61.6173   84.8313    6.4328 C.ar    1  UNL1       -0.0000
     29 C          60.4188   85.4386    7.0995 C.ar    1  UNL1       -0.0003
     30 C          60.5211   85.9484    8.5066 C.ar    1  UNL1       -0.0026
@<TRIPOS>BOND
     1    22    23    1
     2    23     1    1
     3     1     2   ar
     4     2     3   ar
     5     3     4   ar
     6     4     5   ar
     7     5     6   ar
     8     6    15    1
     9    15    16   ar
    10    16    17    1
    11    16    18   ar
    12    18    19   ar
    13    19    20   ar
    14    20    21    1
    15     4     7    2
    16     7     8    1
    17     8     9    1
    18     9    10    2
    19    10    11    1
    20    11    12    2
    21    11    13   am
    22    13    24    1
    23    24    25    1
    24    25    26   ar
    25    26    27   ar
    26    27    28   ar
    27    28    29   ar
    28    29    30   ar
    29    13    14    1
    30     6     1   ar
    31    20    15   ar
    32    14     9    1
    33    14     3    2
    34    30    25   ar
