@<TRIPOS>MOLECULE
*****
 25 27 0 0 0
SMALL
GASTEIGER

@<TRIPOS>ATOM
      1 C          62.4287   88.3182   10.5601 C.ar    1  UNL1        0.0017
      2 C          62.5418   89.6891    9.9621 C.ar    1  UNL1       -0.0023
      3 C          63.1634   90.8027   10.7516 C.ar    1  UNL1       -0.0002
      4 C          63.6719   90.5454   12.1392 C.ar    1  UNL1        0.0030
      5 C          64.2935   91.6591   12.9287 C.ar    1  UNL1        0.0369
      6 C          64.8020   91.4017   14.3162 C.ar    1  UNL1        0.1390
      7 C          64.6888   90.0307   14.9142 C.ar    1  UNL1        0.0369
      8 C          64.0672   88.9171   14.1247 C.ar    1  UNL1        0.0031
      9 C          63.5588   89.1744   12.7371 C.ar    1  UNL1       -0.0001
     10 C          62.9371   88.0608   11.9476 C.ar    1  UNL1       -0.0023
     11 C          61.8070   87.2045    9.7705 C.3     1  UNL1        0.1493
     12 N          60.6269   87.4797    8.8865 N.ar    1  UNL1       -0.1486
     13 N          60.2364   88.8159    8.3279 N.ar    1  UNL1       -0.1261
     14 C          58.9982   88.6292    7.5020 C.ar    1  UNL1        0.2448
     15 N          58.6235   87.1776    7.5502 N.ar    1  UNL1       -0.1044
     16 N          59.6301   86.4672    8.4058 N.ar    1  UNL1       -0.0447
     17 C          62.1980   85.0241   11.1283 C.3     1  UNL1        0.0024
     18 C          62.3655   85.8155    9.8650 C.3     1  UNL1        0.0286
     19 C          63.0916   85.2180    8.6964 C.3     1  UNL1        0.0024
     20 O          65.4236   92.5153   15.1058 O.3     1  UNL1       -0.4666
     21 C          66.7945   93.0110   14.7522 C.3     1  UNL1        0.3081
     22 C          67.9616   92.6829   15.6354 C.3     1  UNL1        0.4380
     23 F          69.1287   92.3548   16.5187 F       1  UNL1       -0.1663
     24 F          67.7701   91.2236   15.3463 F       1  UNL1       -0.1663
     25 F          68.1531   94.1422   15.9246 F       1  UNL1       -0.1663
@<TRIPOS>BOND
     1    17    18    1
     2    18    19    1
     3    18    11    1
     4    11     1    1
     5     1     2   ar
     6     2     3   ar
     7     3     4   ar
     8     4     5   ar
     9     5     6   ar
    10     6    20    1
    11    20    21    1
    12    21    22    1
    13    22    23    1
    14    22    24    1
    15    22    25    1
    16     6     7   ar
    17     7     8   ar
    18     8     9   ar
    19     9    10   ar
    20    11    12    1
    21    12    13   ar
    22    13    14   ar
    23    14    15   ar
    24    15    16   ar
    25    10     1   ar
    26    16    12   ar
    27     9     4   ar
@<TRIPOS>MOLECULE
*****
 25 27 0 0 0
SMALL
GASTEIGER

@<TRIPOS>ATOM
      1 C          62.2667   85.9008   11.3337 C.ar    1  UNL1        0.0017
      2 C          62.6152   87.3218   11.6642 C.ar    1  UNL1       -0.0023
      3 C          62.0310   88.4441   10.8587 C.ar    1  UNL1       -0.0002
      4 C          61.0983   88.1455    9.7225 C.ar    1  UNL1        0.0030
      5 C          60.5140   89.2679    8.9169 C.ar    1  UNL1        0.0369
      6 C          59.5813   88.9693    7.7808 C.ar    1  UNL1        0.1390
      7 C          59.2328   87.5482    7.4503 C.ar    1  UNL1        0.0369
      8 C          59.8170   86.4259    8.2558 C.ar    1  UNL1        0.0031
      9 C          60.7497   86.7245    9.3920 C.ar    1  UNL1       -0.0001
     10 C          61.3340   85.6022   10.1975 C.ar    1  UNL1       -0.0023
     11 C          62.8509   84.7784   12.1392 C.3     1  UNL1        0.1493
     12 N          63.0586   84.9437   13.6156 N.ar    1  UNL1       -0.1486
     13 N          64.3215   85.4022   14.2824 N.ar    1  UNL1       -0.1261
     14 C          64.0833   85.4215   15.7632 C.ar    1  UNL1        0.2448
     15 N          62.6730   84.9749   16.0116 N.ar    1  UNL1       -0.1044
     16 N          62.0397   84.6796   14.6843 N.ar    1  UNL1       -0.0447
     17 C          64.1578   83.5019   10.2919 C.3     1  UNL1        0.0024
     18 C          63.2275   83.4906   11.4685 C.3     1  UNL1        0.0286
     19 C          62.6737   82.1916   11.9743 C.3     1  UNL1        0.0024
     20 O          58.9971   90.0916    6.9752 O.3     1  UNL1       -0.4666
     21 C          59.2750   90.1827    5.5040 C.3     1  UNL1        0.3081
     22 C          59.4418   91.5241    4.8539 C.3     1  UNL1        0.4380
     23 F          59.6086   92.8655    4.2037 F       1  UNL1       -0.1663
     24 F          57.9520   91.6967    4.8279 F       1  UNL1       -0.1663
     25 F          60.9316   91.3515    4.8798 F       1  UNL1       -0.1663
@<TRIPOS>BOND
     1    17    18    1
     2    18    19    1
     3    18    11    1
     4    11     1    1
     5     1     2   ar
     6     2     3   ar
     7     3     4   ar
     8     4     5   ar
     9     5     6   ar
    10     6    20    1
    11    20    21    1
    12    21    22    1
    13    22    23    1
    14    22    24    1
    15    22    25    1
    16     6     7   ar
    17     7     8   ar
    18     8     9   ar
    19     9    10   ar
    20    11    12    1
    21    12    13   ar
    22    13    14   ar
    23    14    15   ar
    24    15    16   ar
    25    10     1   ar
    26    16    12   ar
    27     9     4   ar
@<TRIPOS>MOLECULE
*****
 25 27 0 0 0
SMALL
GASTEIGER

@<TRIPOS>ATOM
      1 C          63.6833   88.4341   13.2664 C.ar    1  UNL1        0.0017
      2 C          64.3420   87.8247   14.4684 C.ar    1  UNL1       -0.0023
      3 C          64.4274   86.3331   14.6011 C.ar    1  UNL1       -0.0002
      4 C          63.8542   85.4509   13.5320 C.ar    1  UNL1        0.0030
      5 C          63.9397   83.9592   13.6648 C.ar    1  UNL1        0.0369
      6 C          63.3665   83.0769   12.5956 C.ar    1  UNL1        0.1390
      7 C          62.7078   83.6865   11.3936 C.ar    1  UNL1        0.0369
      8 C          62.6223   85.1781   11.2608 C.ar    1  UNL1        0.0031
      9 C          63.1956   86.0603   12.3300 C.ar    1  UNL1       -0.0001
     10 C          63.1101   87.5519   12.1973 C.ar    1  UNL1       -0.0023
     11 C          63.5979   89.9259   13.1336 C.3     1  UNL1        0.1493
     12 N          64.2152   90.8083   14.1777 N.ar    1  UNL1       -0.1486
     13 N          65.6098   91.3601   14.1535 N.ar    1  UNL1       -0.1261
     14 C          65.8028   92.1868   15.3902 C.ar    1  UNL1        0.2448
     15 N          64.5275   92.1460   16.1787 N.ar    1  UNL1       -0.1044
     16 N          63.5463   91.2941   15.4293 N.ar    1  UNL1       -0.0447
     17 C          61.4088   90.3916   11.8142 C.3     1  UNL1        0.0024
     18 C          62.8951   90.5350   11.9568 C.3     1  UNL1        0.0286
     19 C          63.6787   91.2875   10.9224 C.3     1  UNL1        0.0024
     20 O          63.4519   81.5853   12.7284 O.3     1  UNL1       -0.4666
     21 C          62.8730   80.9052   13.9336 C.3     1  UNL1        0.3081
     22 C          61.3852   80.8011   14.0937 C.3     1  UNL1        0.4380
     23 F          59.8975   80.6971   14.2539 F       1  UNL1       -0.1663
     24 F          61.4067   79.4602   13.4218 F       1  UNL1       -0.1663
     25 F          61.3638   82.1420   14.7656 F       1  UNL1       -0.1663
@<TRIPOS>BOND
     1    17    18    1
     2    18    19    1
     3    18    11    1
     4    11     1    1
     5     1     2   ar
     6     2     3   ar
     7     3     4   ar
     8     4     5   ar
     9     5     6   ar
    10     6    20    1
    11    20    21    1
    12    21    22    1
    13    22    23    1
    14    22    24    1
    15    22    25    1
    16     6     7   ar
    17     7     8   ar
    18     8     9   ar
    19     9    10   ar
    20    11    12    1
    21    12    13   ar
    22    13    14   ar
    23    14    15   ar
    24    15    16   ar
    25    10     1   ar
    26    16    12   ar
    27     9     4   ar
@<TRIPOS>MOLECULE
*****
 25 27 0 0 0
SMALL
GASTEIGER

@<TRIPOS>ATOM
      1 C          65.1666   91.5734   12.9893 C.ar    1  UNL1        0.0017
      2 C          64.9598   90.4088   13.9117 C.ar    1  UNL1       -0.0023
      3 C          63.9590   89.3464   13.5656 C.ar    1  UNL1       -0.0002
      4 C          63.1650   89.4487   12.2971 C.ar    1  UNL1        0.0030
      5 C          62.1641   88.3863   11.9511 C.ar    1  UNL1        0.0369
      6 C          61.3701   88.4885   10.6826 C.ar    1  UNL1        0.1390
      7 C          61.5769   89.6532    9.7602 C.ar    1  UNL1        0.0369
      8 C          62.5777   90.7156   10.1063 C.ar    1  UNL1        0.0031
      9 C          63.3717   90.6133   11.3747 C.ar    1  UNL1       -0.0001
     10 C          64.3725   91.6756   11.7208 C.ar    1  UNL1       -0.0023
     11 C          66.1674   92.6358   13.3353 C.3     1  UNL1        0.1493
     12 N          66.4688   93.7301   12.3547 N.ar    1  UNL1       -0.1486
     13 N          66.0481   95.1646   12.4775 N.ar    1  UNL1       -0.1261
     14 C          66.5631   95.9032   11.2778 C.ar    1  UNL1        0.2448
     15 N          67.3022   94.9251   10.4135 N.ar    1  UNL1       -0.1044
     16 N          67.2439   93.5821   11.0790 N.ar    1  UNL1       -0.0447
     17 C          68.3507   92.3932   14.7226 C.3     1  UNL1        0.0024
     18 C          66.8667   92.6039   14.6619 C.3     1  UNL1        0.0286
     19 C          66.0822   92.7826   15.9278 C.3     1  UNL1        0.0024
     20 O          60.3693   87.4262   10.3366 O.3     1  UNL1       -0.4666
     21 C          59.7229   87.4171    8.9830 C.3     1  UNL1        0.3081
     22 C          60.0343   86.3183    8.0105 C.3     1  UNL1        0.4380
     23 F          60.3457   85.2196    7.0381 F       1  UNL1       -0.1663
     24 F          61.4328   86.2397    8.5472 F       1  UNL1       -0.1663
     25 F          58.6358   86.3969    7.4739 F       1  UNL1       -0.1663
@<TRIPOS>BOND
     1    17    18    1
     2    18    19    1
     3    18    11    1
     4    11     1    1
     5     1     2   ar
     6     2     3   ar
     7     3     4   ar
     8     4     5   ar
     9     5     6   ar
    10     6    20    1
    11    20    21    1
    12    21    22    1
    13    22    23    1
    14    22    24    1
    15    22    25    1
    16     6     7   ar
    17     7     8   ar
    18     8     9   ar
    19     9    10   ar
    20    11    12    1
    21    12    13   ar
    22    13    14   ar
    23    14    15   ar
    24    15    16   ar
    25    10     1   ar
    26    16    12   ar
    27     9     4   ar
@<TRIPOS>MOLECULE
*****
 25 27 0 0 0
SMALL
GASTEIGER

@<TRIPOS>ATOM
      1 C          62.4395   88.2254   10.8618 C.ar    1  UNL1        0.0017
      2 C          62.5170   89.4894   10.0579 C.ar    1  UNL1       -0.0023
      3 C          63.1868   90.7029   10.6313 C.ar    1  UNL1       -0.0002
      4 C          63.7790   90.6524   12.0085 C.ar    1  UNL1        0.0030
      5 C          64.4488   91.8660   12.5819 C.ar    1  UNL1        0.0369
      6 C          65.0410   91.8155   13.9591 C.ar    1  UNL1        0.1390
      7 C          64.9634   90.5514   14.7630 C.ar    1  UNL1        0.0369
      8 C          64.2936   89.3379   14.1896 C.ar    1  UNL1        0.0031
      9 C          63.7014   89.3884   12.8124 C.ar    1  UNL1       -0.0001
     10 C          63.0317   88.1749   12.2390 C.ar    1  UNL1       -0.0023
     11 C          61.7697   87.0118   10.2885 C.3     1  UNL1        0.1493
     12 N          62.4247   85.6675   10.4064 N.ar    1  UNL1       -0.1486
     13 N          62.4003   84.7777   11.6138 N.ar    1  UNL1       -0.1261
     14 C          63.1797   83.5373   11.2913 C.ar    1  UNL1        0.2448
     15 N          63.6858   83.6605    9.8846 N.ar    1  UNL1       -0.1044
     16 N          63.2192   84.9770    9.3378 N.ar    1  UNL1       -0.0447
     17 C          59.4041   88.0759   10.1408 C.3     1  UNL1        0.0024
     18 C          60.4449   87.1425    9.5972 C.3     1  UNL1        0.0286
     19 C          60.1609   86.3397    8.3623 C.3     1  UNL1        0.0024
     20 O          65.7107   93.0290   14.5324 O.3     1  UNL1       -0.4666
     21 C          67.2040   93.1593   14.4744 C.3     1  UNL1        0.3081
     22 C          68.0451   92.6608   15.6120 C.3     1  UNL1        0.4380
     23 F          68.8862   92.1624   16.7495 F       1  UNL1       -0.1663
     24 F          69.1984   92.4645   14.6732 F       1  UNL1       -0.1663
     25 F          66.8918   92.8572   16.5508 F       1  UNL1       -0.1663
@<TRIPOS>BOND
     1    17    18    1
     2    18    19    1
     3    18    11    1
     4    11     1    1
     5     1     2   ar
     6     2     3   ar
     7     3     4   ar
     8     4     5   ar
     9     5     6   ar
    10     6    20    1
    11    20    21    1
    12    21    22    1
    13    22    23    1
    14    22    24    1
    15    22    25    1
    16     6     7   ar
    17     7     8   ar
    18     8     9   ar
    19     9    10   ar
    20    11    12    1
    21    12    13   ar
    22    13    14   ar
    23    14    15   ar
    24    15    16   ar
    25    10     1   ar
    26    16    12   ar
    27     9     4   ar
@<TRIPOS>MOLECULE
*****
 25 27 0 0 0
SMALL
GASTEIGER

@<TRIPOS>ATOM
      1 C          62.7376   89.5865   11.5101 C.ar    1  UNL1        0.0017
      2 C          63.0889   89.1645   12.9059 C.ar    1  UNL1       -0.0023
      3 C          64.0931   89.9497   13.6965 C.ar    1  UNL1       -0.0002
      4 C          64.7459   91.1569   13.0913 C.ar    1  UNL1        0.0030
      5 C          65.7501   91.9421   13.8820 C.ar    1  UNL1        0.0369
      6 C          66.4030   93.1494   13.2768 C.ar    1  UNL1        0.1390
      7 C          66.0516   93.5715   11.8808 C.ar    1  UNL1        0.0369
      8 C          65.0475   92.7863   11.0902 C.ar    1  UNL1        0.0031
      9 C          64.3946   91.5790   11.6955 C.ar    1  UNL1       -0.0001
     10 C          63.3905   90.7938   10.9049 C.ar    1  UNL1       -0.0023
     11 C          61.7334   88.8013   10.7194 C.3     1  UNL1        0.1493
     12 N          61.9422   87.3340   10.4886 N.ar    1  UNL1       -0.1486
     13 N          62.4678   86.7050    9.2324 N.ar    1  UNL1       -0.1261
     14 C          62.5125   85.2202    9.4410 C.ar    1  UNL1        0.2448
     15 N          62.0145   84.9315   10.8261 N.ar    1  UNL1       -0.1044
     16 N          61.6621   86.2379   11.4736 N.ar    1  UNL1       -0.0447
     17 C          59.7220   90.4182   11.0190 C.3     1  UNL1        0.0024
     18 C          60.5206   89.4835   10.1595 C.3     1  UNL1        0.0286
     19 C          60.1062   89.2310    8.7402 C.3     1  UNL1        0.0024
     20 O          67.4071   93.9346   14.0674 O.3     1  UNL1       -0.4666
     21 C          67.5307   93.7197   15.5468 C.3     1  UNL1        0.3081
     22 C          68.7192   92.9925   16.1023 C.3     1  UNL1        0.4380
     23 F          69.9076   92.2653   16.6579 F       1  UNL1       -0.1663
     24 F          69.4953   94.2759   16.1221 F       1  UNL1       -0.1663
     25 F          67.9431   91.7091   16.0826 F       1  UNL1       -0.1663
@<TRIPOS>BOND
     1    17    18    1
     2    18    19    1
     3    18    11    1
     4    11     1    1
     5     1     2   ar
     6     2     3   ar
     7     3     4   ar
     8     4     5   ar
     9     5     6   ar
    10     6    20    1
    11    20    21    1
    12    21    22    1
    13    22    23    1
    14    22    24    1
    15    22    25    1
    16     6     7   ar
    17     7     8   ar
    18     8     9   ar
    19     9    10   ar
    20    11    12    1
    21    12    13   ar
    22    13    14   ar
    23    14    15   ar
    24    15    16   ar
    25    10     1   ar
    26    16    12   ar
    27     9     4   ar
@<TRIPOS>MOLECULE
*****
 25 27 0 0 0
SMALL
GASTEIGER

@<TRIPOS>ATOM
      1 C          63.4768   85.7829   12.9338 C.ar    1  UNL1        0.0017
      2 C          64.1459   85.7058   14.2740 C.ar    1  UNL1       -0.0023
      3 C          64.5366   86.9642   14.9907 C.ar    1  UNL1       -0.0002
      4 C          64.2583   88.2997   14.3672 C.ar    1  UNL1        0.0030
      5 C          64.6492   89.5582   15.0839 C.ar    1  UNL1        0.0369
      6 C          64.3708   90.8937   14.4604 C.ar    1  UNL1        0.1390
      7 C          63.7017   90.9708   13.1200 C.ar    1  UNL1        0.0369
      8 C          63.3109   89.7125   12.4034 C.ar    1  UNL1        0.0031
      9 C          63.5892   88.3769   13.0269 C.ar    1  UNL1       -0.0001
     10 C          63.1985   87.1185   12.3102 C.ar    1  UNL1       -0.0023
     11 C          63.0860   84.5245   12.2170 C.3     1  UNL1        0.1493
     12 N          63.0269   83.2242   12.9626 N.ar    1  UNL1       -0.1486
     13 N          63.9138   82.0362   12.7347 N.ar    1  UNL1       -0.1261
     14 C          63.5057   80.9614   13.6982 C.ar    1  UNL1        0.2448
     15 N          62.3665   81.4852   14.5215 N.ar    1  UNL1       -0.1044
     16 N          62.0706   82.8837   14.0669 N.ar    1  UNL1       -0.0447
     17 C          61.5910   85.3817   10.2727 C.3     1  UNL1        0.0024
     18 C          62.7542   84.5664   10.7548 C.3     1  UNL1        0.0286
     19 C          63.5855   83.7930    9.7747 C.3     1  UNL1        0.0024
     20 O          64.7616   92.1521   15.1771 O.3     1  UNL1       -0.4666
     21 C          66.2106   92.5087   15.3306 C.3     1  UNL1        0.3081
     22 C          67.1891   92.1527   14.2510 C.3     1  UNL1        0.4380
     23 F          68.1676   91.7967   13.1713 F       1  UNL1       -0.1663
     24 F          67.7408   91.0560   15.1127 F       1  UNL1       -0.1663
     25 F          66.6373   93.2494   13.3892 F       1  UNL1       -0.1663
@<TRIPOS>BOND
     1    17    18    1
     2    18    19    1
     3    18    11    1
     4    11     1    1
     5     1     2   ar
     6     2     3   ar
     7     3     4   ar
     8     4     5   ar
     9     5     6   ar
    10     6    20    1
    11    20    21    1
    12    21    22    1
    13    22    23    1
    14    22    24    1
    15    22    25    1
    16     6     7   ar
    17     7     8   ar
    18     8     9   ar
    19     9    10   ar
    20    11    12    1
    21    12    13   ar
    22    13    14   ar
    23    14    15   ar
    24    15    16   ar
    25    10     1   ar
    26    16    12   ar
    27     9     4   ar
@<TRIPOS>MOLECULE
*****
 25 27 0 0 0
SMALL
GASTEIGER

@<TRIPOS>ATOM
      1 C          64.2074   89.1082   14.2929 C.ar    1  UNL1        0.0017
      2 C          63.5153   89.3596   12.9861 C.ar    1  UNL1       -0.0023
      3 C          63.8498   90.5817   12.1833 C.ar    1  UNL1       -0.0002
      4 C          64.8764   91.5524   12.6872 C.ar    1  UNL1        0.0030
      5 C          65.2108   92.7745   11.8843 C.ar    1  UNL1        0.0369
      6 C          66.2374   93.7452   12.3883 C.ar    1  UNL1        0.1390
      7 C          66.9295   93.4937   13.6951 C.ar    1  UNL1        0.0369
      8 C          66.5950   92.2717   14.4980 C.ar    1  UNL1        0.0031
      9 C          65.5685   91.3010   13.9940 C.ar    1  UNL1       -0.0001
     10 C          65.2340   90.0789   14.7969 C.ar    1  UNL1       -0.0023
     11 C          63.8730   87.8861   15.0958 C.3     1  UNL1        0.1493
     12 N          64.1489   86.5222   14.5359 N.ar    1  UNL1       -0.1486
     13 N          63.3274   85.8109   13.5018 N.ar    1  UNL1       -0.1261
     14 C          63.9655   84.4792   13.2384 C.ar    1  UNL1        0.2448
     15 N          65.1813   84.3674   14.1098 N.ar    1  UNL1       -0.1044
     16 N          65.2947   85.6300   14.9116 N.ar    1  UNL1       -0.0447
     17 C          62.9877   89.3919   17.0191 C.3     1  UNL1        0.0024
     18 C          63.2627   88.0279   16.4587 C.3     1  UNL1        0.0286
     19 C          62.9273   86.8058   17.2612 C.3     1  UNL1        0.0024
     20 O          66.5719   94.9673   11.5854 O.3     1  UNL1       -0.4666
     21 C          66.0206   95.1284   10.1997 C.3     1  UNL1        0.3081
     22 C          66.9114   95.5982    9.0880 C.3     1  UNL1        0.4380
     23 F          67.8022   96.0680    7.9764 F       1  UNL1       -0.1663
     24 F          68.0296   94.7572    9.6287 F       1  UNL1       -0.1663
     25 F          65.7932   96.4391    8.5474 F       1  UNL1       -0.1663
@<TRIPOS>BOND
     1    17    18    1
     2    18    19    1
     3    18    11    1
     4    11     1    1
     5     1     2   ar
     6     2     3   ar
     7     3     4   ar
     8     4     5   ar
     9     5     6   ar
    10     6    20    1
    11    20    21    1
    12    21    22    1
    13    22    23    1
    14    22    24    1
    15    22    25    1
    16     6     7   ar
    17     7     8   ar
    18     8     9   ar
    19     9    10   ar
    20    11    12    1
    21    12    13   ar
    22    13    14   ar
    23    14    15   ar
    24    15    16   ar
    25    10     1   ar
    26    16    12   ar
    27     9     4   ar
@<TRIPOS>MOLECULE
*****
 25 27 0 0 0
SMALL
GASTEIGER

@<TRIPOS>ATOM
      1 C          63.1890   86.2918   12.1721 C.ar    1  UNL1        0.0017
      2 C          63.7770   85.9062   13.4970 C.ar    1  UNL1       -0.0023
      3 C          64.2354   86.9683   14.4517 C.ar    1  UNL1       -0.0002
      4 C          64.1057   88.4161   14.0816 C.ar    1  UNL1        0.0030
      5 C          64.5641   89.4783   15.0365 C.ar    1  UNL1        0.0369
      6 C          64.4344   90.9262   14.6664 C.ar    1  UNL1        0.1390
      7 C          63.8463   91.3118   13.3414 C.ar    1  UNL1        0.0369
      8 C          63.3880   90.2496   12.3866 C.ar    1  UNL1        0.0031
      9 C          63.5176   88.8018   12.7567 C.ar    1  UNL1       -0.0001
     10 C          63.0593   87.7396   11.8020 C.ar    1  UNL1       -0.0023
     11 C          62.7306   85.2296   11.2172 C.3     1  UNL1        0.1493
     12 N          61.9180   85.6036   10.0131 N.ar    1  UNL1       -0.1486
     13 N          60.5758   86.2730   10.0283 N.ar    1  UNL1       -0.1261
     14 C          60.1333   86.4570    8.6069 C.ar    1  UNL1        0.2448
     15 N          61.2021   85.9014    7.7132 N.ar    1  UNL1       -0.1044
     16 N          62.3051   85.3740    8.5822 N.ar    1  UNL1       -0.0447
     17 C          62.3592   83.0148   12.5236 C.3     1  UNL1        0.0024
     18 C          63.0847   83.7935   11.4665 C.3     1  UNL1        0.0286
     19 C          64.1642   83.1361   10.6587 C.3     1  UNL1        0.0024
     20 O          64.8928   91.9883   15.6212 O.3     1  UNL1       -0.4666
     21 C          66.2298   92.6414   15.4311 C.3     1  UNL1        0.3081
     22 C          67.1684   92.1355   14.3761 C.3     1  UNL1        0.4380
     23 F          68.1069   91.6296   13.3211 F       1  UNL1       -0.1663
     24 F          67.6795   91.0961   15.3292 F       1  UNL1       -0.1663
     25 F          66.6573   93.1749   13.4230 F       1  UNL1       -0.1663
@<TRIPOS>BOND
     1    17    18    1
     2    18    19    1
     3    18    11    1
     4    11     1    1
     5     1     2   ar
     6     2     3   ar
     7     3     4   ar
     8     4     5   ar
     9     5     6   ar
    10     6    20    1
    11    20    21    1
    12    21    22    1
    13    22    23    1
    14    22    24    1
    15    22    25    1
    16     6     7   ar
    17     7     8   ar
    18     8     9   ar
    19     9    10   ar
    20    11    12    1
    21    12    13   ar
    22    13    14   ar
    23    14    15   ar
    24    15    16   ar
    25    10     1   ar
    26    16    12   ar
    27     9     4   ar
