@<TRIPOS>MOLECULE
*****
 36 40 0 0 0
SMALL
GASTEIGER

@<TRIPOS>ATOM
      1 N          62.5106   89.6602   10.6753 N.pl3   1  UNL1       -0.2739
      2 C          63.0669   91.0119   10.3382 C.3     1  UNL1        0.1079
      3 C          63.9946   91.4201   11.4440 C.3     1  UNL1        0.1498
      4 C          64.8260   92.6509   11.6535 C.2     1  UNL1        0.2919
      5 O          64.8090   93.7503   10.6331 O.2     1  UNL1       -0.2563
      6 N          65.6745   92.7823   12.8835 N.am    1  UNL1       -0.1449
      7 C          66.5060   94.0132   13.0931 C.3     1  UNL1        0.2159
      8 C          65.6915   91.6831   13.9039 C.2     1  UNL1        0.3728
      9 N          66.5400   91.8145   15.1339 N.2     1  UNL1       -0.1329
     10 N          64.8601   90.4523   13.6944 N.pl3   1  UNL1       -0.2247
     11 C          64.0116   90.3208   12.4644 C.3     1  UNL1        0.1559
     12 C          63.0945   89.2331   11.9893 C.3     1  UNL1        0.1327
     13 H          67.0857   92.6223   15.2715 H       1  UNL1        0.3058
     14 H          64.8713   89.7308   14.3641 H       1  UNL1        0.2454
     15 C          59.7018   88.7875    8.0108 C.ar    1  UNL1        0.2573
     16 N          60.6718   89.5740    8.8419 N.ar    1  UNL1       -0.1768
     17 C          61.5407   88.8737    9.8442 C.ar    1  UNL1        0.2230
     18 N          61.4397   87.3869   10.0154 N.ar    1  UNL1       -0.2095
     19 C          60.4697   86.6005    9.1843 C.ar    1  UNL1        0.1362
     20 C          59.6008   87.3007    8.1820 C.ar    1  UNL1        0.2121
     21 F          58.6309   86.5142    7.3509 F       1  UNL1       -0.1976
     22 C          59.4523   90.1626    5.8206 C.3     1  UNL1        0.2543
     23 O          58.8330   89.4878    7.0085 O.3     1  UNL1       -0.4545
     24 C          63.9272   89.1453   13.3924 C.ar    1  UNL1        0.0397
     25 C          63.8140   87.7064   12.9844 C.ar    1  UNL1        0.0057
     26 C          63.7580   86.8741   14.2311 C.ar    1  UNL1        0.0068
     27 C          63.8365   87.7987   15.4096 C.ar    1  UNL1        0.0352
     28 S          63.9411   89.2024   14.8912 S.2     1  UNL1       -0.0878
     29 C          63.6435   85.3796   14.2891 C.ar    1  UNL1        0.0012
     30 C          63.5883   84.6826   15.6162 C.ar    1  UNL1        0.0001
     31 C          63.4738   83.1881   15.6742 C.ar    1  UNL1        0.0007
     32 C          63.4145   82.3906   14.4051 C.ar    1  UNL1        0.0103
     33 C          63.4697   83.0876   13.0781 C.ar    1  UNL1        0.0684
     34 C          63.5842   84.5821   13.0200 C.ar    1  UNL1        0.0103
     35 C          63.4105   82.2901   11.8090 C.1     1  UNL1        0.1004
     36 N          63.3511   81.4925   10.5400 N.1     1  UNL1       -0.1908
@<TRIPOS>BOND
     1    22    23    1
     2    23    15    1
     3    15    16   ar
     4    16    17   ar
     5    17     1    1
     6     1     2    1
     7     3     2    1
     8     3     4    1
     9     4     5    2
    10     4     6   am
    11     6     7    1
    12     6     8    1
    13     8     9    2
    14     8    10    1
    15    10    11    1
    16    11    24    1
    17    24    25   ar
    18    25    26   ar
    19    26    29    1
    20    29    30   ar
    21    30    31   ar
    22    31    32   ar
    23    32    33   ar
    24    33    35    1
    25    35    36    3
    26    33    34   ar
    27    26    27   ar
    28    27    28   ar
    29    11    12    1
    30    17    18   ar
    31    18    19   ar
    32    19    20   ar
    33    20    21    1
    34    20    15   ar
    35    12     1    1
    36    11     3    1
    37    28    24   ar
    38    34    29   ar
    39     9    13    1
    40    10    14    1
@<TRIPOS>MOLECULE
*****
 36 40 0 0 0
SMALL
GASTEIGER

@<TRIPOS>ATOM
      1 N          62.7420   89.8842   10.7623 N.pl3   1  UNL1       -0.2739
      2 C          63.3406   91.2289   10.4733 C.3     1  UNL1        0.1079
      3 C          64.2174   91.6044   11.6310 C.3     1  UNL1        0.1498
      4 C          65.0601   92.8157   11.9003 C.2     1  UNL1        0.2919
      5 O          65.1170   93.9283   10.8958 O.2     1  UNL1       -0.2563
      6 N          65.8461   92.9144   13.1741 N.am    1  UNL1       -0.1449
      7 C          66.6889   94.1258   13.4434 C.3     1  UNL1        0.2159
      8 C          65.7892   91.8019   14.1786 C.2     1  UNL1        0.3728
      9 N          66.5752   91.9007   15.4524 N.2     1  UNL1       -0.1329
     10 N          64.9465   90.5906   13.9093 N.pl3   1  UNL1       -0.2247
     11 C          64.1606   90.4919   12.6355 C.3     1  UNL1        0.1559
     12 C          63.2487   89.4287   12.0986 C.3     1  UNL1        0.1327
     13 H          67.1283   92.6957   15.6292 H       1  UNL1        0.3058
     14 H          64.9092   89.8605   14.5686 H       1  UNL1        0.2454
     15 C          61.1772   86.9600    8.5827 C.ar    1  UNL1        0.2573
     16 N          62.1175   87.7165    9.4736 N.ar    1  UNL1       -0.1768
     17 C          61.8016   89.1278    9.8714 C.ar    1  UNL1        0.2230
     18 N          60.5455   89.7828    9.3785 N.ar    1  UNL1       -0.2095
     19 C          59.6052   89.0263    8.4876 C.ar    1  UNL1        0.1362
     20 C          59.9210   87.6150    8.0897 C.ar    1  UNL1        0.2121
     21 F          58.9807   86.8586    7.1988 F       1  UNL1       -0.1976
     22 C          62.9180   85.0817    8.1450 C.3     1  UNL1        0.2543
     23 O          61.4931   85.5487    8.1848 O.3     1  UNL1       -0.4545
     24 C          64.0058   89.3064   13.5414 C.ar    1  UNL1        0.0397
     25 C          63.8654   87.8775   13.1073 C.ar    1  UNL1        0.0057
     26 C          63.7370   87.0296   14.3381 C.ar    1  UNL1        0.0068
     27 C          63.7981   87.9345   15.5328 C.ar    1  UNL1        0.0352
     28 S          63.9641   89.3416   15.0404 S.2     1  UNL1       -0.0878
     29 C          63.5760   85.5386   14.3687 C.ar    1  UNL1        0.0012
     30 C          63.3771   84.8324   15.6771 C.ar    1  UNL1        0.0001
     31 C          63.2160   83.3414   15.7077 C.ar    1  UNL1        0.0007
     32 C          63.2538   82.5566   14.4300 C.ar    1  UNL1        0.0103
     33 C          63.4526   83.2628   13.1216 C.ar    1  UNL1        0.0684
     34 C          63.6137   84.7537   13.0909 C.ar    1  UNL1        0.0103
     35 C          63.4903   82.4778   11.8439 C.1     1  UNL1        0.1004
     36 N          63.5280   81.6929   10.5662 N.1     1  UNL1       -0.1908
@<TRIPOS>BOND
     1    22    23    1
     2    23    15    1
     3    15    16   ar
     4    16    17   ar
     5    17     1    1
     6     1     2    1
     7     3     2    1
     8     3     4    1
     9     4     5    2
    10     4     6   am
    11     6     7    1
    12     6     8    1
    13     8     9    2
    14     8    10    1
    15    10    11    1
    16    11    24    1
    17    24    25   ar
    18    25    26   ar
    19    26    29    1
    20    29    30   ar
    21    30    31   ar
    22    31    32   ar
    23    32    33   ar
    24    33    35    1
    25    35    36    3
    26    33    34   ar
    27    26    27   ar
    28    27    28   ar
    29    11    12    1
    30    17    18   ar
    31    18    19   ar
    32    19    20   ar
    33    20    21    1
    34    20    15   ar
    35    12     1    1
    36    11     3    1
    37    28    24   ar
    38    34    29   ar
    39     9    13    1
    40    10    14    1
@<TRIPOS>MOLECULE
*****
 36 40 0 0 0
SMALL
GASTEIGER

@<TRIPOS>ATOM
      1 N          62.2198   85.7680   11.4616 N.pl3   1  UNL1       -0.2739
      2 C          61.5487   85.2442   10.2266 C.3     1  UNL1        0.1079
      3 C          61.0081   86.4152    9.4608 C.3     1  UNL1        0.1498
      4 C          60.2524   86.5067    8.1683 C.2     1  UNL1        0.2919
      5 O          59.9153   85.2592    7.4066 O.2     1  UNL1       -0.2563
      6 N          59.8338   87.8458    7.6375 N.am    1  UNL1       -0.1449
      7 C          59.0781   87.9373    6.3449 C.3     1  UNL1        0.2159
      8 C          60.1709   89.0932    8.3991 C.2     1  UNL1        0.3728
      9 N          59.7523   90.4323    7.8683 N.2     1  UNL1       -0.1329
     10 N          60.9266   89.0017    9.6916 N.pl3   1  UNL1       -0.2247
     11 C          61.3451   87.6627   10.2225 C.3     1  UNL1        0.1559
     12 C          62.0941   87.2627   11.4590 C.3     1  UNL1        0.1327
     13 H          59.2564   90.4924    7.0200 H       1  UNL1        0.3058
     14 H          61.1478   89.8205   10.1915 H       1  UNL1        0.2454
     15 C          63.6202   82.6225   13.4353 C.ar    1  UNL1        0.2573
     16 N          62.9422   83.4485   12.3826 N.ar    1  UNL1       -0.1768
     17 C          62.8978   84.9420   12.5143 C.ar    1  UNL1        0.2230
     18 N          63.5313   85.6096   13.6988 N.ar    1  UNL1       -0.2095
     19 C          64.2093   84.7836   14.7515 C.ar    1  UNL1        0.1362
     20 C          64.2537   83.2901   14.6197 C.ar    1  UNL1        0.2121
     21 F          64.9317   82.4642   15.6725 F       1  UNL1       -0.1976
     22 C          62.3921   80.3353   13.3322 C.3     1  UNL1        0.2543
     23 O          63.6646   81.1290   13.3035 O.3     1  UNL1       -0.4545
     24 C          61.7512   88.8170   11.0900 C.ar    1  UNL1        0.0397
     25 C          63.1465   89.3381   11.2679 C.ar    1  UNL1        0.0057
     26 C          63.0910   90.4961   12.2199 C.ar    1  UNL1        0.0068
     27 C          61.6614   90.6906   12.6302 C.ar    1  UNL1        0.0352
     28 S          60.8334   89.6529   11.9320 S.2     1  UNL1       -0.0878
     29 C          64.2598   91.3156   12.6805 C.ar    1  UNL1        0.0012
     30 C          64.8599   91.0720   14.0335 C.ar    1  UNL1        0.0001
     31 C          66.0287   91.8915   14.4941 C.ar    1  UNL1        0.0007
     32 C          66.5975   92.9545   13.6018 C.ar    1  UNL1        0.0103
     33 C          65.9974   93.1981   12.2488 C.ar    1  UNL1        0.0684
     34 C          64.8286   92.3787   11.7881 C.ar    1  UNL1        0.0103
     35 C          66.5663   94.2613   11.3564 C.1     1  UNL1        0.1004
     36 N          67.1351   95.3244   10.4642 N.1     1  UNL1       -0.1908
@<TRIPOS>BOND
     1    22    23    1
     2    23    15    1
     3    15    16   ar
     4    16    17   ar
     5    17     1    1
     6     1     2    1
     7     3     2    1
     8     3     4    1
     9     4     5    2
    10     4     6   am
    11     6     7    1
    12     6     8    1
    13     8     9    2
    14     8    10    1
    15    10    11    1
    16    11    24    1
    17    24    25   ar
    18    25    26   ar
    19    26    29    1
    20    29    30   ar
    21    30    31   ar
    22    31    32   ar
    23    32    33   ar
    24    33    35    1
    25    35    36    3
    26    33    34   ar
    27    26    27   ar
    28    27    28   ar
    29    11    12    1
    30    17    18   ar
    31    18    19   ar
    32    19    20   ar
    33    20    21    1
    34    20    15   ar
    35    12     1    1
    36    11     3    1
    37    28    24   ar
    38    34    29   ar
    39     9    13    1
    40    10    14    1
@<TRIPOS>MOLECULE
*****
 36 40 0 0 0
SMALL
GASTEIGER

@<TRIPOS>ATOM
      1 N          62.2113   85.8095   11.4197 N.pl3   1  UNL1       -0.2739
      2 C          61.5355   85.2732   10.1927 C.3     1  UNL1        0.1079
      3 C          60.9935   86.4364    9.4162 C.3     1  UNL1        0.1498
      4 C          60.2336   86.5148    8.1253 C.2     1  UNL1        0.2919
      5 O          59.8927   85.2595    7.3781 O.2     1  UNL1       -0.2563
      6 N          59.8145   87.8486    7.5815 N.am    1  UNL1       -0.1449
      7 C          59.0546   87.9269    6.2905 C.3     1  UNL1        0.2159
      8 C          60.1553   89.1037    8.3286 C.2     1  UNL1        0.3728
      9 N          59.7363   90.4375    7.7848 N.2     1  UNL1       -0.1329
     10 N          60.9152   89.0254    9.6195 N.pl3   1  UNL1       -0.2247
     11 C          61.3343   87.6917   10.1633 C.3     1  UNL1        0.1559
     12 C          62.0869   87.3043   11.4016 C.3     1  UNL1        0.1327
     13 H          59.2375   90.4890    6.9375 H       1  UNL1        0.3058
     14 H          61.1389   89.8493   10.1098 H       1  UNL1        0.2454
     15 C          63.8689   84.7865   14.8775 C.ar    1  UNL1        0.2573
     16 N          63.1882   85.6017   13.8182 N.ar    1  UNL1       -0.1768
     17 C          62.8920   84.9943   12.4790 C.ar    1  UNL1        0.2230
     18 N          63.2764   83.5717   12.1992 N.ar    1  UNL1       -0.2095
     19 C          63.9571   82.7565   13.2586 C.ar    1  UNL1        0.1362
     20 C          64.2533   83.3639   14.5977 C.ar    1  UNL1        0.2121
     21 F          64.9340   82.5486   15.6570 F       1  UNL1       -0.1976
     22 C          63.0729   86.0691   16.9921 C.3     1  UNL1        0.2543
     23 O          64.1651   85.3940   16.2166 O.3     1  UNL1       -0.4545
     24 C          61.7444   88.8549   11.0170 C.ar    1  UNL1        0.0397
     25 C          63.1447   89.3570   11.2093 C.ar    1  UNL1        0.0057
     26 C          63.0920   90.5326   12.1395 C.ar    1  UNL1        0.0068
     27 C          61.6591   90.7571   12.5220 C.ar    1  UNL1        0.0352
     28 S          60.8262   89.7202   11.8283 S.2     1  UNL1       -0.0878
     29 C          64.2660   91.3417   12.6053 C.ar    1  UNL1        0.0012
     30 C          64.8739   91.0754   13.9506 C.ar    1  UNL1        0.0001
     31 C          66.0480   91.8845   14.4164 C.ar    1  UNL1        0.0007
     32 C          66.6141   92.9597   13.5370 C.ar    1  UNL1        0.0103
     33 C          66.0062   93.2259   12.1918 C.ar    1  UNL1        0.0684
     34 C          64.8322   92.4169   11.7259 C.ar    1  UNL1        0.0103
     35 C          66.5724   94.3012   11.3125 C.1     1  UNL1        0.1004
     36 N          67.1386   95.3765   10.4331 N.1     1  UNL1       -0.1908
@<TRIPOS>BOND
     1    22    23    1
     2    23    15    1
     3    15    16   ar
     4    16    17   ar
     5    17     1    1
     6     1     2    1
     7     3     2    1
     8     3     4    1
     9     4     5    2
    10     4     6   am
    11     6     7    1
    12     6     8    1
    13     8     9    2
    14     8    10    1
    15    10    11    1
    16    11    24    1
    17    24    25   ar
    18    25    26   ar
    19    26    29    1
    20    29    30   ar
    21    30    31   ar
    22    31    32   ar
    23    32    33   ar
    24    33    35    1
    25    35    36    3
    26    33    34   ar
    27    26    27   ar
    28    27    28   ar
    29    11    12    1
    30    17    18   ar
    31    18    19   ar
    32    19    20   ar
    33    20    21    1
    34    20    15   ar
    35    12     1    1
    36    11     3    1
    37    28    24   ar
    38    34    29   ar
    39     9    13    1
    40    10    14    1
@<TRIPOS>MOLECULE
*****
 36 40 0 0 0
SMALL
GASTEIGER

@<TRIPOS>ATOM
      1 N          64.1769   88.4945   14.2798 N.pl3   1  UNL1       -0.2739
      2 C          65.0955   89.3778   15.0709 C.3     1  UNL1        0.1079
      3 C          65.2831   90.6545   14.3063 C.3     1  UNL1        0.1498
      4 C          66.0812   91.8907   14.5976 C.2     1  UNL1        0.2919
      5 O          66.8839   91.9850   15.8613 O.2     1  UNL1       -0.2563
      6 N          66.0766   93.0328   13.6250 N.am    1  UNL1       -0.1449
      7 C          66.8748   94.2691   13.9163 C.3     1  UNL1        0.2159
      8 C          65.2740   92.9386   12.3614 C.2     1  UNL1        0.3728
      9 N          65.2694   94.0807   11.3889 N.2     1  UNL1       -0.1329
     10 N          64.4759   91.7024   12.0702 N.pl3   1  UNL1       -0.2247
     11 C          64.4805   90.5604   13.0427 C.3     1  UNL1        0.1559
     12 C          63.7968   89.2254   13.0262 C.3     1  UNL1        0.1327
     13 H          65.7932   94.8921   11.5800 H       1  UNL1        0.3058
     14 H          63.9491   91.6406   11.2408 H       1  UNL1        0.2454
     15 C          63.1142   84.6793   14.0243 C.ar    1  UNL1        0.2573
     16 N          63.5723   86.0524   13.6310 N.ar    1  UNL1       -0.1768
     17 C          63.7187   87.1214   14.6731 C.ar    1  UNL1        0.2230
     18 N          63.4069   86.8173   16.1084 N.ar    1  UNL1       -0.2095
     19 C          62.9488   85.4441   16.5017 C.ar    1  UNL1        0.1362
     20 C          62.8024   84.3751   15.4596 C.ar    1  UNL1        0.2121
     21 F          62.3442   83.0020   15.8529 F       1  UNL1       -0.1976
     22 C          64.0439   82.5799   12.8085 C.3     1  UNL1        0.2543
     23 O          62.9678   83.6104   12.9822 O.3     1  UNL1       -0.4545
     24 C          63.6344   90.3232   11.8270 C.ar    1  UNL1        0.0397
     25 C          62.9135   89.0520   11.4890 C.ar    1  UNL1        0.0057
     26 C          62.1941   89.2587   10.1890 C.ar    1  UNL1        0.0068
     27 C          62.4704   90.6576    9.7237 C.ar    1  UNL1        0.0352
     28 S          63.3606   91.3155   10.7360 S.2     1  UNL1       -0.0878
     29 C          61.3471   88.2445    9.4791 C.ar    1  UNL1        0.0012
     30 C          59.8545   88.2806    9.6236 C.ar    1  UNL1        0.0001
     31 C          59.0075   87.2664    8.9137 C.ar    1  UNL1        0.0007
     32 C          59.6531   86.2161    8.0592 C.ar    1  UNL1        0.0103
     33 C          61.1457   86.1800    7.9147 C.ar    1  UNL1        0.0684
     34 C          61.9927   87.1942    8.6246 C.ar    1  UNL1        0.0103
     35 C          61.7912   85.1297    7.0602 C.1     1  UNL1        0.1004
     36 N          62.4367   84.0793    6.2058 N.1     1  UNL1       -0.1908
@<TRIPOS>BOND
     1    22    23    1
     2    23    15    1
     3    15    16   ar
     4    16    17   ar
     5    17     1    1
     6     1     2    1
     7     3     2    1
     8     3     4    1
     9     4     5    2
    10     4     6   am
    11     6     7    1
    12     6     8    1
    13     8     9    2
    14     8    10    1
    15    10    11    1
    16    11    24    1
    17    24    25   ar
    18    25    26   ar
    19    26    29    1
    20    29    30   ar
    21    30    31   ar
    22    31    32   ar
    23    32    33   ar
    24    33    35    1
    25    35    36    3
    26    33    34   ar
    27    26    27   ar
    28    27    28   ar
    29    11    12    1
    30    17    18   ar
    31    18    19   ar
    32    19    20   ar
    33    20    21    1
    34    20    15   ar
    35    12     1    1
    36    11     3    1
    37    28    24   ar
    38    34    29   ar
    39     9    13    1
    40    10    14    1
@<TRIPOS>MOLECULE
*****
 36 40 0 0 0
SMALL
GASTEIGER

@<TRIPOS>ATOM
      1 N          62.6164   89.0231   11.3721 N.pl3   1  UNL1       -0.2739
      2 C          61.6264   89.8172   10.5725 C.3     1  UNL1        0.1079
      3 C          60.9645   88.8874    9.5992 C.3     1  UNL1        0.1498
      4 C          59.9078   89.1103    8.5581 C.2     1  UNL1        0.2919
      5 O          59.3269   90.4790    8.3600 O.2     1  UNL1       -0.2563
      6 N          59.4321   87.9643    7.7151 N.am    1  UNL1       -0.1449
      7 C          58.3754   88.1872    6.6740 C.3     1  UNL1        0.2159
      8 C          60.0129   86.5957    7.9132 C.2     1  UNL1        0.3728
      9 N          59.5372   85.4497    7.0702 N.2     1  UNL1       -0.1329
     10 N          61.0696   86.3728    8.9543 N.pl3   1  UNL1       -0.2247
     11 C          61.5453   87.5187    9.7973 C.3     1  UNL1        0.1559
     12 C          62.5663   87.6026   10.8930 C.3     1  UNL1        0.1327
     13 H          58.8437   85.5960    6.3869 H       1  UNL1        0.3058
     14 H          61.4508   85.4745    9.0843 H       1  UNL1        0.2454
     15 C          64.9507   91.4747   13.4436 C.ar    1  UNL1        0.2573
     16 N          64.0659   90.9417   12.3559 N.ar    1  UNL1       -0.1768
     17 C          63.5011   89.5560   12.4599 C.ar    1  UNL1        0.2230
     18 N          63.8211   88.7032   13.6517 N.ar    1  UNL1       -0.2095
     19 C          64.7058   89.2362   14.7394 C.ar    1  UNL1        0.1362
     20 C          65.2707   90.6219   14.6354 C.ar    1  UNL1        0.2121
     21 F          66.1554   91.1548   15.7232 F       1  UNL1       -0.1976
     22 C          66.0593   93.3524   12.0310 C.3     1  UNL1        0.2543
     23 O          65.5155   92.8604   13.3395 O.3     1  UNL1       -0.4545
     24 C          62.2155   86.2132   10.1080 C.ar    1  UNL1        0.0397
     25 C          61.9448   85.3452   11.3009 C.ar    1  UNL1        0.0057
     26 C          62.8361   84.1420   11.2106 C.ar    1  UNL1        0.0068
     27 C          63.6576   84.2664    9.9617 C.ar    1  UNL1        0.0352
     28 S          63.2740   85.5465    9.2803 S.2     1  UNL1       -0.0878
     29 C          62.8954   83.0127   12.1960 C.ar    1  UNL1        0.0012
     30 C          64.2215   82.5304   12.7051 C.ar    1  UNL1        0.0001
     31 C          64.2808   81.4011   13.6906 C.ar    1  UNL1        0.0007
     32 C          63.0141   80.7541   14.1669 C.ar    1  UNL1        0.0103
     33 C          61.6881   81.2363   13.6578 C.ar    1  UNL1        0.0684
     34 C          61.6287   82.3656   12.6724 C.ar    1  UNL1        0.0103
     35 C          60.4215   80.5892   14.1342 C.1     1  UNL1        0.1004
     36 N          59.1548   79.9421   14.6105 N.1     1  UNL1       -0.1908
@<TRIPOS>BOND
     1    22    23    1
     2    23    15    1
     3    15    16   ar
     4    16    17   ar
     5    17     1    1
     6     1     2    1
     7     3     2    1
     8     3     4    1
     9     4     5    2
    10     4     6   am
    11     6     7    1
    12     6     8    1
    13     8     9    2
    14     8    10    1
    15    10    11    1
    16    11    24    1
    17    24    25   ar
    18    25    26   ar
    19    26    29    1
    20    29    30   ar
    21    30    31   ar
    22    31    32   ar
    23    32    33   ar
    24    33    35    1
    25    35    36    3
    26    33    34   ar
    27    26    27   ar
    28    27    28   ar
    29    11    12    1
    30    17    18   ar
    31    18    19   ar
    32    19    20   ar
    33    20    21    1
    34    20    15   ar
    35    12     1    1
    36    11     3    1
    37    28    24   ar
    38    34    29   ar
    39     9    13    1
    40    10    14    1
@<TRIPOS>MOLECULE
*****
 36 40 0 0 0
SMALL
GASTEIGER

@<TRIPOS>ATOM
      1 N          63.1775   89.9783   12.5430 N.pl3   1  UNL1       -0.2739
      2 C          62.3956   90.5947   11.4212 C.3     1  UNL1        0.1079
      3 C          61.7670   89.4860   10.6303 C.3     1  UNL1        0.1498
      4 C          60.8872   89.4935    9.4154 C.2     1  UNL1        0.2919
      5 O          60.4937   90.7952    8.7824 O.2     1  UNL1       -0.2563
      6 N          60.4009   88.1992    8.8336 N.am    1  UNL1       -0.1449
      7 C          59.5210   88.2068    7.6187 C.3     1  UNL1        0.2159
      8 C          60.7943   86.8976    9.4666 C.2     1  UNL1        0.3728
      9 N          60.3080   85.6033    8.8848 N.2     1  UNL1       -0.1329
     10 N          61.6741   86.8901   10.6815 N.pl3   1  UNL1       -0.2247
     11 C          62.1605   88.1842   11.2633 C.3     1  UNL1        0.1559
     12 C          63.0322   88.4885   12.4454 C.3     1  UNL1        0.1327
     13 H          59.7305   85.6082    8.0875 H       1  UNL1        0.3058
     14 H          61.9324   86.0357   11.0969 H       1  UNL1        0.2454
     15 C          66.0407   92.1390   14.2412 C.ar    1  UNL1        0.2573
     16 N          65.2518   91.3962   13.2039 N.ar    1  UNL1       -0.1768
     17 C          63.9663   90.7211   13.5803 C.ar    1  UNL1        0.2230
     18 N          63.4695   90.7889   14.9940 N.ar    1  UNL1       -0.2095
     19 C          64.2584   91.5318   16.0313 C.ar    1  UNL1        0.1362
     20 C          65.5439   92.2069   15.6549 C.ar    1  UNL1        0.2121
     21 F          66.3327   92.9497   16.6922 F       1  UNL1       -0.1976
     22 C          68.6087   92.4085   14.5285 C.3     1  UNL1        0.2543
     23 O          67.3262   92.8140   13.8647 O.3     1  UNL1       -0.4545
     24 C          62.6343   86.9673   12.0013 C.ar    1  UNL1        0.0397
     25 C          62.1610   85.5615   11.7788 C.ar    1  UNL1        0.0057
     26 C          62.8988   84.6678   12.7313 C.ar    1  UNL1        0.0068
     27 C          63.8279   85.5214   13.5425 C.ar    1  UNL1        0.0352
     28 S          63.6644   86.9426   13.0913 S.2     1  UNL1       -0.0878
     29 C          62.7359   83.1815   12.8516 C.ar    1  UNL1        0.0012
     30 C          62.4178   82.5672   14.1826 C.ar    1  UNL1        0.0001
     31 C          62.2550   81.0809   14.3028 C.ar    1  UNL1        0.0007
     32 C          62.4101   80.2090   13.0922 C.ar    1  UNL1        0.0103
     33 C          62.7281   80.8234   11.7612 C.ar    1  UNL1        0.0684
     34 C          62.8910   82.3097   11.6409 C.ar    1  UNL1        0.0103
     35 C          62.8833   79.9514   10.5506 C.1     1  UNL1        0.1004
     36 N          63.0384   79.0795    9.3399 N.1     1  UNL1       -0.1908
@<TRIPOS>BOND
     1    22    23    1
     2    23    15    1
     3    15    16   ar
     4    16    17   ar
     5    17     1    1
     6     1     2    1
     7     3     2    1
     8     3     4    1
     9     4     5    2
    10     4     6   am
    11     6     7    1
    12     6     8    1
    13     8     9    2
    14     8    10    1
    15    10    11    1
    16    11    24    1
    17    24    25   ar
    18    25    26   ar
    19    26    29    1
    20    29    30   ar
    21    30    31   ar
    22    31    32   ar
    23    32    33   ar
    24    33    35    1
    25    35    36    3
    26    33    34   ar
    27    26    27   ar
    28    27    28   ar
    29    11    12    1
    30    17    18   ar
    31    18    19   ar
    32    19    20   ar
    33    20    21    1
    34    20    15   ar
    35    12     1    1
    36    11     3    1
    37    28    24   ar
    38    34    29   ar
    39     9    13    1
    40    10    14    1
@<TRIPOS>MOLECULE
*****
 36 40 0 0 0
SMALL
GASTEIGER

@<TRIPOS>ATOM
      1 N          64.2777   89.9313   14.5065 N.pl3   1  UNL1       -0.2739
      2 C          65.2037   91.0385   14.9149 C.3     1  UNL1        0.1079
      3 C          65.3337   91.9844   13.7581 C.3     1  UNL1        0.1498
      4 C          66.1128   93.2541   13.5826 C.2     1  UNL1        0.2919
      5 O          66.9584   93.7767   14.7059 O.2     1  UNL1       -0.2563
      6 N          66.0463   94.0013   12.2835 N.am    1  UNL1       -0.1449
      7 C          66.8255   95.2711   12.1080 C.3     1  UNL1        0.2159
      8 C          65.2008   93.4788   11.1602 C.2     1  UNL1        0.3728
      9 N          65.1343   94.2260    9.8612 N.2     1  UNL1       -0.1329
     10 N          64.4216   92.2091   11.3358 N.pl3   1  UNL1       -0.2247
     11 C          64.4881   91.4619   12.6347 C.3     1  UNL1        0.1559
     12 C          63.8355   90.1930   13.0972 C.3     1  UNL1        0.1327
     13 H          65.6456   95.0594    9.7459 H       1  UNL1        0.3058
     14 H          63.8667   91.8662   10.5985 H       1  UNL1        0.2454
     15 C          63.7729   86.2035   15.7709 C.ar    1  UNL1        0.2573
     16 N          64.1844   87.3680   14.9196 N.ar    1  UNL1       -0.1768
     17 C          63.8662   88.7669   15.3578 C.ar    1  UNL1        0.2230
     18 N          63.1366   89.0012   16.6472 N.ar    1  UNL1       -0.2095
     19 C          62.7252   87.8367   17.4985 C.ar    1  UNL1        0.1362
     20 C          63.0433   86.4378   17.0603 C.ar    1  UNL1        0.2121
     21 F          62.6319   85.2734   17.9116 F       1  UNL1       -0.1976
     22 C          62.9885   83.8865   14.8955 C.3     1  UNL1        0.2543
     23 O          64.0911   84.8047   15.3327 O.3     1  UNL1       -0.4545
     24 C          63.6041   90.8206   11.6065 C.ar    1  UNL1        0.0397
     25 C          63.4511   89.3471   11.3710 C.ar    1  UNL1        0.0057
     26 C          62.4704   89.1559   10.2522 C.ar    1  UNL1        0.0068
     27 C          62.0174   90.5112    9.7962 C.ar    1  UNL1        0.0352
     28 S          62.7181   91.5400   10.6332 S.2     1  UNL1       -0.0878
     29 C          62.0215   87.8404    9.6883 C.ar    1  UNL1        0.0012
     30 C          60.7722   87.7660    8.8614 C.ar    1  UNL1        0.0001
     31 C          60.3234   86.4504    8.2976 C.ar    1  UNL1        0.0007
     32 C          61.1238   85.2094    8.5607 C.ar    1  UNL1        0.0103
     33 C          62.3730   85.2839    9.3876 C.ar    1  UNL1        0.0684
     34 C          62.8219   86.5994    9.9514 C.ar    1  UNL1        0.0103
     35 C          63.1734   84.0428    9.6506 C.1     1  UNL1        0.1004
     36 N          63.9736   82.8017    9.9138 N.1     1  UNL1       -0.1908
@<TRIPOS>BOND
     1    22    23    1
     2    23    15    1
     3    15    16   ar
     4    16    17   ar
     5    17     1    1
     6     1     2    1
     7     3     2    1
     8     3     4    1
     9     4     5    2
    10     4     6   am
    11     6     7    1
    12     6     8    1
    13     8     9    2
    14     8    10    1
    15    10    11    1
    16    11    24    1
    17    24    25   ar
    18    25    26   ar
    19    26    29    1
    20    29    30   ar
    21    30    31   ar
    22    31    32   ar
    23    32    33   ar
    24    33    35    1
    25    35    36    3
    26    33    34   ar
    27    26    27   ar
    28    27    28   ar
    29    11    12    1
    30    17    18   ar
    31    18    19   ar
    32    19    20   ar
    33    20    21    1
    34    20    15   ar
    35    12     1    1
    36    11     3    1
    37    28    24   ar
    38    34    29   ar
    39     9    13    1
    40    10    14    1
@<TRIPOS>MOLECULE
*****
 36 40 0 0 0
SMALL
GASTEIGER

@<TRIPOS>ATOM
      1 N          64.2665   88.8552   14.2960 N.pl3   1  UNL1       -0.2739
      2 C          65.1833   89.7813   15.0389 C.3     1  UNL1        0.1079
      3 C          65.3641   91.0181   14.2097 C.3     1  UNL1        0.1498
      4 C          66.1578   92.2707   14.4356 C.2     1  UNL1        0.2919
      5 O          66.9630   92.4324   15.6909 O.2     1  UNL1       -0.2563
      6 N          66.1463   93.3617   13.4061 N.am    1  UNL1       -0.1449
      7 C          66.9401   94.6144   13.6320 C.3     1  UNL1        0.2159
      8 C          65.3413   93.2001   12.1510 C.2     1  UNL1        0.3728
      9 N          65.3298   94.2911   11.1215 N.2     1  UNL1       -0.1329
     10 N          64.5475   91.9475   11.9251 N.pl3   1  UNL1       -0.2247
     11 C          64.5589   90.8565   12.9545 C.3     1  UNL1        0.1559
     12 C          63.8806   89.5198   13.0078 C.3     1  UNL1        0.1327
     13 H          65.8508   95.1132   11.2697 H       1  UNL1        0.3058
     14 H          64.0191   91.8415   11.1012 H       1  UNL1        0.2454
     15 C          62.8251   85.9735   16.6130 C.ar    1  UNL1        0.2573
     16 N          63.2768   87.3266   16.1490 N.ar    1  UNL1       -0.1768
     17 C          63.8148   87.5022   14.7599 C.ar    1  UNL1        0.2230
     18 N          63.9011   86.3247   13.8347 N.ar    1  UNL1       -0.2095
     19 C          63.4493   84.9716   14.2986 C.ar    1  UNL1        0.1362
     20 C          62.9114   84.7960   15.6878 C.ar    1  UNL1        0.2121
     21 F          62.4597   83.4430   16.1517 F       1  UNL1       -0.1976
     22 C          62.6059   86.8092   19.0632 C.3     1  UNL1        0.2543
     23 O          62.2871   85.7980   18.0022 O.3     1  UNL1       -0.4545
     24 C          63.7110   90.5544   11.7546 C.ar    1  UNL1        0.0397
     25 C          62.9871   89.2680   11.4880 C.ar    1  UNL1        0.0057
     26 C          62.2667   89.4041   10.1792 C.ar    1  UNL1        0.0068
     27 C          62.5455   90.7746    9.6371 C.ar    1  UNL1        0.0352
     28 S          63.4381   91.4855   10.6107 S.2     1  UNL1       -0.0878
     29 C          61.4169   88.3541    9.5272 C.ar    1  UNL1        0.0012
     30 C          59.9297   88.3649    9.7229 C.ar    1  UNL1        0.0001
     31 C          59.0798   87.3149    9.0709 C.ar    1  UNL1        0.0007
     32 C          59.7171   86.2540    8.2233 C.ar    1  UNL1        0.0103
     33 C          61.2042   86.2432    8.0277 C.ar    1  UNL1        0.0684
     34 C          62.0542   87.2932    8.6796 C.ar    1  UNL1        0.0103
     35 C          61.8415   85.1823    7.1800 C.1     1  UNL1        0.1004
     36 N          62.4787   84.1213    6.3325 N.1     1  UNL1       -0.1908
@<TRIPOS>BOND
     1    22    23    1
     2    23    15    1
     3    15    16   ar
     4    16    17   ar
     5    17     1    1
     6     1     2    1
     7     3     2    1
     8     3     4    1
     9     4     5    2
    10     4     6   am
    11     6     7    1
    12     6     8    1
    13     8     9    2
    14     8    10    1
    15    10    11    1
    16    11    24    1
    17    24    25   ar
    18    25    26   ar
    19    26    29    1
    20    29    30   ar
    21    30    31   ar
    22    31    32   ar
    23    32    33   ar
    24    33    35    1
    25    35    36    3
    26    33    34   ar
    27    26    27   ar
    28    27    28   ar
    29    11    12    1
    30    17    18   ar
    31    18    19   ar
    32    19    20   ar
    33    20    21    1
    34    20    15   ar
    35    12     1    1
    36    11     3    1
    37    28    24   ar
    38    34    29   ar
    39     9    13    1
    40    10    14    1
