@<TRIPOS>MOLECULE
*****
 46 49 0 0 0
SMALL
GASTEIGER

@<TRIPOS>ATOM
      1 N          61.4585   89.1167   10.7659 N.am    1  UNL1       -0.2735
      2 C          61.0349   87.9318    9.9494 C.2     1  UNL1        0.2492
      3 O          59.7779   87.9942    9.1333 O.2     1  UNL1       -0.2699
      4 C          61.8683   86.6846    9.9490 C.ar    1  UNL1        0.0567
      5 C          62.4291   86.1577    8.6614 C.ar    1  UNL1        0.0063
      6 C          63.2625   84.9106    8.6611 C.ar    1  UNL1        0.0225
      7 C          63.5350   84.1903    9.9483 C.ar    1  UNL1        0.1202
      8 N          64.3157   82.9471   10.2570 N.ar    1  UNL1       -0.1948
      9 C          64.2373   82.7057   11.7353 C.ar    1  UNL1        0.2891
     10 O          63.4083   83.7997   12.3403 O.2     1  UNL1       -0.4239
     11 C          62.9743   84.7172   11.2359 C.ar    1  UNL1        0.1662
     12 C          62.1409   85.9643   11.2362 C.ar    1  UNL1        0.0437
     13 N          64.8758   81.5698   12.4783 N.pl3   1  UNL1       -0.2869
     14 H          65.7807   81.2686   12.2340 H       1  UNL1        0.1512
     15 C          64.1356   80.8928   13.5936 C.3     1  UNL1        0.1084
     16 C          62.7130   80.4604   13.3956 C.3     1  UNL1        0.0937
     17 N          61.6043   81.1829   14.1019 N.3     1  UNL1       -0.2689
     18 C          60.2357   80.5729   14.1703 C.3     1  UNL1        0.0897
     19 C          61.8643   82.5153   14.7398 C.3     1  UNL1        0.0897
     20 C          62.7155   89.0544   11.5820 C.3     1  UNL1        0.1245
     21 C          62.7999   89.7898   12.8867 C.3     1  UNL1        0.1484
     22 O          61.5763   89.9462   13.7400 O.3     1  UNL1       -0.3810
     23 H          60.8224   89.5172   13.3059 H       1  UNL1        0.2105
     24 C          64.1080   90.3689   13.3379 C.3     1  UNL1        0.1075
     25 N          64.7414   91.4856   12.5620 N.am    1  UNL1       -0.2695
     26 C          65.4258   92.6074   13.2853 C.2     1  UNL1        0.4020
     27 O          65.4769   92.6124   14.7845 O.2     1  UNL1       -0.2264
     28 H          64.7078   91.4822   11.5781 H       1  UNL1        0.1528
     29 O          66.0592   93.7240   12.5095 O.3     1  UNL1       -0.4291
     30 C          65.7917   93.8623   11.0400 C.3     1  UNL1        0.2447
     31 C          66.8545   93.4966   10.0466 C.ar    1  UNL1        0.0714
     32 C          67.1839   94.2483    8.7910 C.ar    1  UNL1        0.1053
     33 N          68.3075   93.5315    8.1028 N.ar    1  UNL1       -0.2350
     34 C          68.6725   92.3367    8.9331 C.ar    1  UNL1        0.1343
     35 S          67.7746   92.3152   10.1344 S.2     1  UNL1       -0.0652
     36 C          64.7827   89.8313   14.5650 C.3     1  UNL1        0.0485
     37 C          64.2310   88.6184   15.2537 C.ar    1  UNL1       -0.0204
     38 C          63.3790   88.7738   16.4784 C.ar    1  UNL1       -0.0042
     39 C          62.8273   87.5608   17.1671 C.ar    1  UNL1       -0.0003
     40 C          63.1276   86.1924   16.6311 C.ar    1  UNL1       -0.0000
     41 C          63.9796   86.0370   15.4064 C.ar    1  UNL1       -0.0003
     42 C          64.5313   87.2499   14.7177 C.ar    1  UNL1       -0.0042
     43 C          60.6251   90.3639   10.7663 C.3     1  UNL1        0.0937
     44 C          58.8819   89.1996   12.3011 C.3     1  UNL1        0.0018
     45 C          59.3497   90.4134   11.5543 C.3     1  UNL1        0.0199
     46 C          58.5422   91.6769   11.5956 C.3     1  UNL1        0.0018
@<TRIPOS>BOND
     1    44    45    1
     2    45    46    1
     3    45    43    1
     4    43     1    1
     5     1    20    1
     6    20    21    1
     7    21    22    1
     8    21    24    1
     9    24    36    1
    10    36    37    1
    11    37    38   ar
    12    38    39   ar
    13    39    40   ar
    14    40    41   ar
    15    41    42   ar
    16    24    25    1
    17    25    26   am
    18    26    27    2
    19    26    29    1
    20    29    30    1
    21    30    31    1
    22    31    32   ar
    23    32    33   ar
    24    33    34   ar
    25    34    35   ar
    26     1     2   am
    27     2     3    2
    28     2     4    1
    29     4     5   ar
    30     5     6   ar
    31     6     7   ar
    32     7     8   ar
    33     8     9   ar
    34     9    13    1
    35    13    15    1
    36    15    16    1
    37    16    17    1
    38    17    18    1
    39    17    19    1
    40     9    10   ar
    41    10    11   ar
    42    11    12   ar
    43    42    37   ar
    44    35    31   ar
    45    12     4   ar
    46    11     7   ar
    47    22    23    1
    48    25    28    1
    49    13    14    1
@<TRIPOS>MOLECULE
*****
 46 49 0 0 0
SMALL
GASTEIGER

@<TRIPOS>ATOM
      1 N          63.9778   90.8642   12.8728 N.am    1  UNL1       -0.2735
      2 C          64.1844   90.7196   14.3514 C.2     1  UNL1        0.2492
      3 O          64.6465   91.8938   15.1625 O.2     1  UNL1       -0.2699
      4 C          63.9290   89.4008   15.0190 C.ar    1  UNL1        0.0567
      5 C          63.2346   89.3549   16.3477 C.ar    1  UNL1        0.0063
      6 C          62.9792   88.0361   17.0152 C.ar    1  UNL1        0.0225
      7 C          63.4182   86.7633   16.3540 C.ar    1  UNL1        0.1202
      8 N          63.3044   85.3261   16.7682 N.ar    1  UNL1       -0.1948
      9 C          63.9285   84.4838   15.6953 C.ar    1  UNL1        0.2891
     10 O          64.4280   85.4005   14.6182 O.2     1  UNL1       -0.4239
     11 C          64.1126   86.8093   15.0253 C.ar    1  UNL1        0.1662
     12 C          64.3680   88.1280   14.3578 C.ar    1  UNL1        0.0437
     13 N          64.0346   82.9875   15.6989 N.pl3   1  UNL1       -0.2869
     14 H          64.4026   82.5220   16.4845 H       1  UNL1        0.1512
     15 C          63.5799   82.2005   14.5056 C.3     1  UNL1        0.1084
     16 C          62.1198   82.1212   14.1715 C.3     1  UNL1        0.0937
     17 N          61.5016   80.8006   13.8198 N.3     1  UNL1       -0.2689
     18 C          62.3096   79.7623   13.0993 C.3     1  UNL1        0.0897
     19 C          60.0753   80.5182   14.1885 C.3     1  UNL1        0.0897
     20 C          63.5157   89.6901   12.0617 C.3     1  UNL1        0.1245
     21 C          62.0502   89.3961   11.9352 C.3     1  UNL1        0.1484
     22 O          61.0730   90.0349   12.8770 O.3     1  UNL1       -0.3810
     23 H          61.5501   90.6045   13.5005 H       1  UNL1        0.2105
     24 C          61.5619   88.4631   10.8669 C.3     1  UNL1        0.1075
     25 N          61.4277   88.9464    9.4532 N.am    1  UNL1       -0.2695
     26 C          60.2977   88.4563    8.5971 C.2     1  UNL1        0.4020
     27 O          59.3018   87.4829    9.1549 O.2     1  UNL1       -0.2264
     28 H          62.0813   89.5852    9.0872 H       1  UNL1        0.1528
     29 O          60.1634   88.9394    7.1835 O.3     1  UNL1       -0.4291
     30 C          58.8457   89.4595    6.6906 C.3     1  UNL1        0.2447
     31 C          58.8071   90.5738    5.6870 C.ar    1  UNL1        0.0714
     32 C          57.5746   91.2649    5.1838 C.ar    1  UNL1        0.1053
     33 N          58.0000   92.3107    4.1962 N.ar    1  UNL1       -0.2350
     34 C          59.4956   92.2659    4.0891 C.ar    1  UNL1        0.1343
     35 S          59.9943   91.1924    5.0104 S.2     1  UNL1       -0.0652
     36 C          61.2078   87.0471   11.2123 C.3     1  UNL1        0.0485
     37 C          62.0867   85.9212   10.7541 C.ar    1  UNL1       -0.0204
     38 C          62.4253   85.7781    9.2999 C.ar    1  UNL1       -0.0042
     39 C          63.3042   84.6522    8.8417 C.ar    1  UNL1       -0.0003
     40 C          63.8444   83.6693    9.8378 C.ar    1  UNL1       -0.0000
     41 C          63.5057   83.8124   11.2921 C.ar    1  UNL1       -0.0003
     42 C          62.6269   84.9383   11.7502 C.ar    1  UNL1       -0.0042
     43 C          64.2332   92.1830   12.2052 C.3     1  UNL1        0.0937
     44 C          66.7870   92.3363   12.6571 C.3     1  UNL1        0.0018
     45 C          65.6159   92.5333   11.7409 C.3     1  UNL1        0.0199
     46 C          65.8273   93.0805   10.3603 C.3     1  UNL1        0.0018
@<TRIPOS>BOND
     1    44    45    1
     2    45    46    1
     3    45    43    1
     4    43     1    1
     5     1    20    1
     6    20    21    1
     7    21    22    1
     8    21    24    1
     9    24    36    1
    10    36    37    1
    11    37    38   ar
    12    38    39   ar
    13    39    40   ar
    14    40    41   ar
    15    41    42   ar
    16    24    25    1
    17    25    26   am
    18    26    27    2
    19    26    29    1
    20    29    30    1
    21    30    31    1
    22    31    32   ar
    23    32    33   ar
    24    33    34   ar
    25    34    35   ar
    26     1     2   am
    27     2     3    2
    28     2     4    1
    29     4     5   ar
    30     5     6   ar
    31     6     7   ar
    32     7     8   ar
    33     8     9   ar
    34     9    13    1
    35    13    15    1
    36    15    16    1
    37    16    17    1
    38    17    18    1
    39    17    19    1
    40     9    10   ar
    41    10    11   ar
    42    11    12   ar
    43    42    37   ar
    44    35    31   ar
    45    12     4   ar
    46    11     7   ar
    47    22    23    1
    48    25    28    1
    49    13    14    1
@<TRIPOS>MOLECULE
*****
 46 49 0 0 0
SMALL
GASTEIGER

@<TRIPOS>ATOM
      1 N          63.7786   87.0094   13.9138 N.am    1  UNL1       -0.2735
      2 C          63.1518   85.7814   13.3230 C.2     1  UNL1        0.2492
      3 O          63.0530   84.5247   14.1358 O.2     1  UNL1       -0.2699
      4 C          62.6238   85.8102   11.9192 C.ar    1  UNL1        0.0567
      5 C          63.1330   84.8282   10.9061 C.ar    1  UNL1        0.0063
      6 C          62.6049   84.8569    9.5025 C.ar    1  UNL1        0.0225
      7 C          61.5677   85.8677    9.1119 C.ar    1  UNL1        0.1202
      8 N          60.8656   86.1350    7.8136 N.ar    1  UNL1       -0.1948
      9 C          59.9224   87.2822    8.0243 C.ar    1  UNL1        0.2891
     10 O          60.0417   87.7239    9.4528 O.2     1  UNL1       -0.4239
     11 C          61.0585   86.8497   10.1250 C.ar    1  UNL1        0.1662
     12 C          61.5866   86.8209   11.5286 C.ar    1  UNL1        0.0437
     13 N          59.0187   87.8823    6.9883 N.pl3   1  UNL1       -0.2869
     14 H          58.5352   87.2992    6.3595 H       1  UNL1        0.1512
     15 C          58.8517   89.3710    6.9105 C.3     1  UNL1        0.1084
     16 C          59.4741   90.1375    5.7814 C.3     1  UNL1        0.0937
     17 N          58.6971   91.2191    5.0911 N.3     1  UNL1       -0.2689
     18 C          59.4198   92.3286    4.3864 C.3     1  UNL1        0.0897
     19 C          57.1975   91.1912    5.1054 C.3     1  UNL1        0.0897
     20 C          63.8774   88.2662   13.1009 C.3     1  UNL1        0.1245
     21 C          63.4513   89.5773   13.6922 C.3     1  UNL1        0.1484
     22 O          62.0487   89.7534   14.1936 O.3     1  UNL1       -0.3810
     23 H          61.5525   88.9304   14.0619 H       1  UNL1        0.2105
     24 C          64.4280   90.7122   13.7821 C.3     1  UNL1        0.1075
     25 N          64.8239   91.4609   12.5440 N.am    1  UNL1       -0.2695
     26 C          63.8440   91.6227   11.4198 C.2     1  UNL1        0.4020
     27 O          62.4682   91.0359   11.5339 O.2     1  UNL1       -0.2264
     28 H          65.7269   91.8460   12.4691 H       1  UNL1        0.1528
     29 O          64.2399   92.3713   10.1818 O.3     1  UNL1       -0.4291
     30 C          65.1145   93.5853   10.2868 C.3     1  UNL1        0.2447
     31 C          66.5753   93.4879    9.9598 C.ar    1  UNL1        0.0714
     32 C          67.4478   94.6092    9.4787 C.ar    1  UNL1        0.1053
     33 N          68.8316   94.0664    9.2780 N.ar    1  UNL1       -0.2350
     34 C          68.8144   92.6096    9.6351 C.ar    1  UNL1        0.1343
     35 S          67.4199   92.2521   10.0564 S.2     1  UNL1       -0.0652
     36 C          65.0088   91.0985   15.1100 C.3     1  UNL1        0.0485
     37 C          66.3566   91.7533   15.1772 C.ar    1  UNL1       -0.0204
     38 C          66.6737   92.7042   16.2931 C.ar    1  UNL1       -0.0042
     39 C          68.0216   93.3590   16.3602 C.ar    1  UNL1       -0.0003
     40 C          69.0524   93.0629   15.3115 C.ar    1  UNL1       -0.0000
     41 C          68.7353   92.1120   14.1956 C.ar    1  UNL1       -0.0003
     42 C          67.3874   91.4572   14.1284 C.ar    1  UNL1       -0.0042
     43 C          64.3067   86.9807   15.3175 C.3     1  UNL1        0.0937
     44 C          62.7113   85.9674   17.1001 C.3     1  UNL1        0.0018
     45 C          63.3699   87.1613   16.4750 C.3     1  UNL1        0.0199
     46 C          63.0917   88.5358   17.0074 C.3     1  UNL1        0.0018
@<TRIPOS>BOND
     1    44    45    1
     2    45    46    1
     3    45    43    1
     4    43     1    1
     5     1    20    1
     6    20    21    1
     7    21    22    1
     8    21    24    1
     9    24    36    1
    10    36    37    1
    11    37    38   ar
    12    38    39   ar
    13    39    40   ar
    14    40    41   ar
    15    41    42   ar
    16    24    25    1
    17    25    26   am
    18    26    27    2
    19    26    29    1
    20    29    30    1
    21    30    31    1
    22    31    32   ar
    23    32    33   ar
    24    33    34   ar
    25    34    35   ar
    26     1     2   am
    27     2     3    2
    28     2     4    1
    29     4     5   ar
    30     5     6   ar
    31     6     7   ar
    32     7     8   ar
    33     8     9   ar
    34     9    13    1
    35    13    15    1
    36    15    16    1
    37    16    17    1
    38    17    18    1
    39    17    19    1
    40     9    10   ar
    41    10    11   ar
    42    11    12   ar
    43    42    37   ar
    44    35    31   ar
    45    12     4   ar
    46    11     7   ar
    47    22    23    1
    48    25    28    1
    49    13    14    1
@<TRIPOS>MOLECULE
*****
 46 49 0 0 0
SMALL
GASTEIGER

@<TRIPOS>ATOM
      1 N          63.1153   83.8622   13.3046 N.am    1  UNL1       -0.2735
      2 C          63.8864   84.1849   14.5500 C.2     1  UNL1        0.2492
      3 O          64.8793   83.2006   15.0936 O.2     1  UNL1       -0.2699
      4 C          63.6648   85.4919   15.2519 C.ar    1  UNL1        0.0567
      5 C          62.8933   85.5314   16.5376 C.ar    1  UNL1        0.0063
      6 C          62.6717   86.8384   17.2395 C.ar    1  UNL1        0.0225
      7 C          63.2215   88.1059   16.6555 C.ar    1  UNL1        0.1202
      8 N          63.1633   89.5318   17.1177 N.ar    1  UNL1       -0.1948
      9 C          63.8989   90.3736   16.1175 C.ar    1  UNL1        0.2891
     10 O          64.4117   89.4679   15.0373 O.2     1  UNL1       -0.4239
     11 C          63.9930   88.0665   15.3698 C.ar    1  UNL1        0.1662
     12 C          64.2147   86.7595   14.6680 C.ar    1  UNL1        0.0437
     13 N          64.0884   91.8601   16.1856 N.pl3   1  UNL1       -0.2869
     14 H          63.4138   92.4225   16.6303 H       1  UNL1        0.1512
     15 C          65.3059   92.4896   15.5761 C.3     1  UNL1        0.1084
     16 C          66.5347   92.7061   16.4085 C.3     1  UNL1        0.0937
     17 N          67.8766   92.8238   15.7485 N.3     1  UNL1       -0.2689
     18 C          68.7299   94.0327   15.9945 C.3     1  UNL1        0.0897
     19 C          68.3651   91.7327   14.8426 C.3     1  UNL1        0.0897
     20 C          62.1224   84.8464   12.7610 C.3     1  UNL1        0.1245
     21 C          62.4278   85.6019   11.5016 C.3     1  UNL1        0.1484
     22 O          63.1683   84.9290   10.3842 O.3     1  UNL1       -0.3810
     23 H          63.3736   84.0152   10.6365 H       1  UNL1        0.2105
     24 C          61.9927   87.0304   11.3597 C.3     1  UNL1        0.1075
     25 N          62.9949   88.1374   11.5018 N.am    1  UNL1       -0.2695
     26 C          62.5915   89.4383   12.1302 C.2     1  UNL1        0.4020
     27 O          61.1858   89.6322   12.6166 O.2     1  UNL1       -0.2264
     28 H          63.9175   88.0101   11.1826 H       1  UNL1        0.1528
     29 O          63.5937   90.5452   12.2723 O.3     1  UNL1       -0.4291
     30 C          64.0258   91.3251   11.0661 C.3     1  UNL1        0.2447
     31 C          65.1071   92.3576   11.1883 C.ar    1  UNL1        0.0714
     32 C          66.1837   92.3874   12.2325 C.ar    1  UNL1        0.1053
     33 N          67.0436   93.5897   11.9774 N.ar    1  UNL1       -0.2350
     34 C          66.4985   94.3029   10.7756 C.ar    1  UNL1        0.1343
     35 S          65.3017   93.5414   10.2880 S.2     1  UNL1       -0.0652
     36 C          60.5553   87.3519   11.0758 C.3     1  UNL1        0.0485
     37 C          60.1309   87.7267    9.6868 C.ar    1  UNL1       -0.0204
     38 C          60.2236   89.1536    9.2335 C.ar    1  UNL1       -0.0042
     39 C          59.7991   89.5283    7.8445 C.ar    1  UNL1       -0.0003
     40 C          59.2820   88.4762    6.9087 C.ar    1  UNL1       -0.0000
     41 C          59.1893   87.0493    7.3620 C.ar    1  UNL1       -0.0003
     42 C          59.6138   86.6746    8.7510 C.ar    1  UNL1       -0.0042
     43 C          63.3369   82.5551   12.6027 C.3     1  UNL1        0.0937
     44 C          61.5613   81.4310   14.1303 C.3     1  UNL1        0.0018
     45 C          62.5305   81.3505   12.9883 C.3     1  UNL1        0.0199
     46 C          62.6934   80.0654   12.2319 C.3     1  UNL1        0.0018
@<TRIPOS>BOND
     1    44    45    1
     2    45    46    1
     3    45    43    1
     4    43     1    1
     5     1    20    1
     6    20    21    1
     7    21    22    1
     8    21    24    1
     9    24    36    1
    10    36    37    1
    11    37    38   ar
    12    38    39   ar
    13    39    40   ar
    14    40    41   ar
    15    41    42   ar
    16    24    25    1
    17    25    26   am
    18    26    27    2
    19    26    29    1
    20    29    30    1
    21    30    31    1
    22    31    32   ar
    23    32    33   ar
    24    33    34   ar
    25    34    35   ar
    26     1     2   am
    27     2     3    2
    28     2     4    1
    29     4     5   ar
    30     5     6   ar
    31     6     7   ar
    32     7     8   ar
    33     8     9   ar
    34     9    13    1
    35    13    15    1
    36    15    16    1
    37    16    17    1
    38    17    18    1
    39    17    19    1
    40     9    10   ar
    41    10    11   ar
    42    11    12   ar
    43    42    37   ar
    44    35    31   ar
    45    12     4   ar
    46    11     7   ar
    47    22    23    1
    48    25    28    1
    49    13    14    1
@<TRIPOS>MOLECULE
*****
 46 49 0 0 0
SMALL
GASTEIGER

@<TRIPOS>ATOM
      1 N          61.9979   87.3848   10.8727 N.am    1  UNL1       -0.2735
      2 C          61.9152   88.8425   10.5288 C.2     1  UNL1        0.2492
      3 O          60.9365   89.3148    9.4948 O.2     1  UNL1       -0.2699
      4 C          62.8111   89.8279   11.2190 C.ar    1  UNL1        0.0567
      5 C          63.0694   89.7036   12.6913 C.ar    1  UNL1        0.0063
      6 C          63.9653   90.6890   13.3814 C.ar    1  UNL1        0.0225
      7 C          64.6030   91.7987   12.5992 C.ar    1  UNL1        0.1202
      8 N          65.5249   92.9108   13.0036 N.ar    1  UNL1       -0.1948
      9 C          65.8363   93.7224   11.7812 C.ar    1  UNL1        0.2891
     10 O          65.1069   93.1120   10.6213 O.2     1  UNL1       -0.4239
     11 C          64.3446   91.9231   11.1268 C.ar    1  UNL1        0.1662
     12 C          63.4487   90.9377   10.4368 C.ar    1  UNL1        0.0437
     13 N          66.7217   94.9321   11.7280 N.pl3   1  UNL1       -0.2869
     14 H          67.6128   94.9087   12.1459 H       1  UNL1        0.1512
     15 C          66.2494   96.1774   11.0380 C.3     1  UNL1        0.1084
     16 C          66.9855   96.6950    9.8379 C.3     1  UNL1        0.0937
     17 N          66.7506   96.0789    8.4906 N.3     1  UNL1       -0.2689
     18 C          67.3684   94.7542    8.1537 C.3     1  UNL1        0.0897
     19 C          65.8979   96.7874    7.4803 C.3     1  UNL1        0.0897
     20 C          62.9765   86.9125   11.9066 C.3     1  UNL1        0.1245
     21 C          62.9643   85.4801   12.3519 C.3     1  UNL1        0.1484
     22 O          61.9816   84.5173   11.7543 O.3     1  UNL1       -0.3810
     23 H          61.4324   84.9792   11.1016 H       1  UNL1        0.2105
     24 C          63.9349   85.0106   13.3948 C.3     1  UNL1        0.1075
     25 N          64.1888   83.5434   13.5767 N.am    1  UNL1       -0.2695
     26 C          63.1613   82.6823   14.2496 C.2     1  UNL1        0.4020
     27 O          61.8799   83.2883   14.7405 O.2     1  UNL1       -0.2264
     28 H          65.0297   83.1457   13.2545 H       1  UNL1        0.1528
     29 O          63.4151   81.2152   14.4315 O.3     1  UNL1       -0.4291
     30 C          62.5946   80.2126   13.6754 C.3     1  UNL1        0.2447
     31 C          62.7565   80.0782   12.1901 C.ar    1  UNL1        0.0714
     32 C          62.5617   78.8232   11.3920 C.ar    1  UNL1        0.1053
     33 N          62.8264   79.1445    9.9510 N.ar    1  UNL1       -0.2350
     34 C          63.1849   80.5981    9.8585 C.ar    1  UNL1        0.1343
     35 S          63.1417   81.1752   11.2423 S.2     1  UNL1       -0.0652
     36 C          64.6515   86.0081   14.2557 C.3     1  UNL1        0.0485
     37 C          63.9792   86.5669   15.4746 C.ar    1  UNL1       -0.0204
     38 C          63.4508   85.6415   16.5302 C.ar    1  UNL1       -0.0042
     39 C          62.7785   86.2002   17.7492 C.ar    1  UNL1       -0.0003
     40 C          62.6346   87.6843   17.9125 C.ar    1  UNL1       -0.0000
     41 C          63.1630   88.6097   16.8568 C.ar    1  UNL1       -0.0003
     42 C          63.8353   88.0510   15.6379 C.ar    1  UNL1       -0.0042
     43 C          61.1019   86.3994   10.1825 C.3     1  UNL1        0.0937
     44 C          62.7688   85.5411    8.3839 C.3     1  UNL1        0.0018
     45 C          61.3892   85.9862    8.7694 C.3     1  UNL1        0.0199
     46 C          60.2969   86.0181    7.7419 C.3     1  UNL1        0.0018
@<TRIPOS>BOND
     1    44    45    1
     2    45    46    1
     3    45    43    1
     4    43     1    1
     5     1    20    1
     6    20    21    1
     7    21    22    1
     8    21    24    1
     9    24    36    1
    10    36    37    1
    11    37    38   ar
    12    38    39   ar
    13    39    40   ar
    14    40    41   ar
    15    41    42   ar
    16    24    25    1
    17    25    26   am
    18    26    27    2
    19    26    29    1
    20    29    30    1
    21    30    31    1
    22    31    32   ar
    23    32    33   ar
    24    33    34   ar
    25    34    35   ar
    26     1     2   am
    27     2     3    2
    28     2     4    1
    29     4     5   ar
    30     5     6   ar
    31     6     7   ar
    32     7     8   ar
    33     8     9   ar
    34     9    13    1
    35    13    15    1
    36    15    16    1
    37    16    17    1
    38    17    18    1
    39    17    19    1
    40     9    10   ar
    41    10    11   ar
    42    11    12   ar
    43    42    37   ar
    44    35    31   ar
    45    12     4   ar
    46    11     7   ar
    47    22    23    1
    48    25    28    1
    49    13    14    1
@<TRIPOS>MOLECULE
*****
 46 49 0 0 0
SMALL
GASTEIGER

@<TRIPOS>ATOM
      1 N          59.9073   88.6263    8.9070 N.am    1  UNL1       -0.2735
      2 C          59.3561   88.3444    7.5407 C.2     1  UNL1        0.2492
      3 O          58.9175   86.9558    7.1809 O.2     1  UNL1       -0.2699
      4 C          59.2435   89.4510    6.5343 C.ar    1  UNL1        0.0567
      5 C          57.9084   90.0724    6.2492 C.ar    1  UNL1        0.0063
      6 C          57.7958   91.1789    5.2428 C.ar    1  UNL1        0.0225
      7 C          59.0183   91.6640    4.5216 C.ar    1  UNL1        0.1202
      8 N          59.2152   92.7301    3.4848 N.ar    1  UNL1       -0.1948
      9 C          60.6719   92.7675    3.1292 C.ar    1  UNL1        0.2891
     10 O          61.3754   91.7246    3.9462 O.2     1  UNL1       -0.4239
     11 C          60.3534   91.0426    4.8067 C.ar    1  UNL1        0.1662
     12 C          60.4660   89.9361    5.8131 C.ar    1  UNL1        0.0437
     13 N          61.3128   93.6865    2.1317 N.pl3   1  UNL1       -0.2869
     14 H          61.3863   94.6489    2.3254 H       1  UNL1        0.1512
     15 C          61.8416   93.1390    0.8392 C.3     1  UNL1        0.1084
     16 C          60.9610   92.2952   -0.0341 C.3     1  UNL1        0.0937
     17 N          59.9348   92.9444   -0.9147 N.3     1  UNL1       -0.2689
     18 C          58.4818   92.8771   -0.5486 C.3     1  UNL1        0.0897
     19 C          60.3617   93.6607   -2.1615 C.3     1  UNL1        0.0897
     20 C          60.3459   90.0149    9.2668 C.3     1  UNL1        0.1245
     21 C          60.9640   90.2825   10.6072 C.3     1  UNL1        0.1484
     22 O          60.0895   90.5264   11.8012 O.3     1  UNL1       -0.3810
     23 H          59.1580   90.4764   11.5353 H       1  UNL1        0.2105
     24 C          62.4567   90.3061   10.7534 C.3     1  UNL1        0.1075
     25 N          63.1743   89.1143   11.3145 N.am    1  UNL1       -0.2695
     26 C          63.1212   88.8314   12.7866 C.2     1  UNL1        0.4020
     27 O          62.3506   89.7404   13.6977 O.2     1  UNL1       -0.2264
     28 H          63.6800   88.5177   10.7165 H       1  UNL1        0.1528
     29 O          63.8388   87.6397   13.3477 O.3     1  UNL1       -0.4291
     30 C          64.3829   87.6811   14.7449 C.3     1  UNL1        0.2447
     31 C          63.6401   87.0056   15.8594 C.ar    1  UNL1        0.0714
     32 C          63.3227   85.5422   15.9476 C.ar    1  UNL1        0.1053
     33 N          62.5708   85.3070   17.2240 N.ar    1  UNL1       -0.2350
     34 C          62.4234   86.6251   17.9247 C.ar    1  UNL1        0.1343
     35 S          63.0842   87.6749   17.0813 S.2     1  UNL1       -0.0652
     36 C          63.2318   91.5215   10.3387 C.3     1  UNL1        0.0485
     37 C          64.4927   91.8900   11.0627 C.ar    1  UNL1       -0.0204
     38 C          64.5370   91.8468   12.5614 C.ar    1  UNL1       -0.0042
     39 C          65.7980   92.2153   13.2854 C.ar    1  UNL1       -0.0003
     40 C          67.0146   92.6270   12.5107 C.ar    1  UNL1       -0.0000
     41 C          66.9703   92.6703   11.0120 C.ar    1  UNL1       -0.0003
     42 C          65.7094   92.3018   10.2880 C.ar    1  UNL1       -0.0042
     43 C          60.0199   87.5197    9.9134 C.3     1  UNL1        0.0937
     44 C          62.1062   86.5464    8.7092 C.3     1  UNL1        0.0018
     45 C          61.2330   86.6375    9.9254 C.3     1  UNL1        0.0199
     46 C          61.5729   85.8464   11.1537 C.3     1  UNL1        0.0018
@<TRIPOS>BOND
     1    44    45    1
     2    45    46    1
     3    45    43    1
     4    43     1    1
     5     1    20    1
     6    20    21    1
     7    21    22    1
     8    21    24    1
     9    24    36    1
    10    36    37    1
    11    37    38   ar
    12    38    39   ar
    13    39    40   ar
    14    40    41   ar
    15    41    42   ar
    16    24    25    1
    17    25    26   am
    18    26    27    2
    19    26    29    1
    20    29    30    1
    21    30    31    1
    22    31    32   ar
    23    32    33   ar
    24    33    34   ar
    25    34    35   ar
    26     1     2   am
    27     2     3    2
    28     2     4    1
    29     4     5   ar
    30     5     6   ar
    31     6     7   ar
    32     7     8   ar
    33     8     9   ar
    34     9    13    1
    35    13    15    1
    36    15    16    1
    37    16    17    1
    38    17    18    1
    39    17    19    1
    40     9    10   ar
    41    10    11   ar
    42    11    12   ar
    43    42    37   ar
    44    35    31   ar
    45    12     4   ar
    46    11     7   ar
    47    22    23    1
    48    25    28    1
    49    13    14    1
@<TRIPOS>MOLECULE
*****
 46 49 0 0 0
SMALL
GASTEIGER

@<TRIPOS>ATOM
      1 N          59.9252   88.6537    8.8796 N.am    1  UNL1       -0.2735
      2 C          59.3619   88.3848    7.5157 C.2     1  UNL1        0.2492
      3 O          58.8896   87.0069    7.1576 O.2     1  UNL1       -0.2699
      4 C          59.2710   89.4939    6.5098 C.ar    1  UNL1        0.0567
      5 C          57.9525   90.1569    6.2416 C.ar    1  UNL1        0.0063
      6 C          57.8616   91.2659    5.2358 C.ar    1  UNL1        0.0225
      7 C          59.0891   91.7118    4.4981 C.ar    1  UNL1        0.1202
      8 N          59.3058   92.7706    3.4578 N.ar    1  UNL1       -0.1948
      9 C          60.7582   92.7619    3.0830 C.ar    1  UNL1        0.2891
     10 O          61.4391   91.6977    3.8917 O.2     1  UNL1       -0.4239
     11 C          60.4076   91.0488    4.7662 C.ar    1  UNL1        0.1662
     12 C          60.4985   89.9398    5.7721 C.ar    1  UNL1        0.0437
     13 N          61.4144   93.6597    2.0763 N.pl3   1  UNL1       -0.2869
     14 H          61.1450   94.6042    2.0095 H       1  UNL1        0.1512
     15 C          62.4812   93.1182    1.1714 C.3     1  UNL1        0.1084
     16 C          63.9278   93.3159    1.5153 C.3     1  UNL1        0.0937
     17 N          64.5787   94.6472    1.2834 N.3     1  UNL1       -0.2689
     18 C          64.9105   95.0870   -0.1118 C.3     1  UNL1        0.0897
     19 C          64.8979   95.5388    2.4466 C.3     1  UNL1        0.0897
     20 C          60.3975   90.0316    9.2378 C.3     1  UNL1        0.1245
     21 C          60.9762   90.2967   10.5961 C.3     1  UNL1        0.1484
     22 O          60.0671   90.5170   11.7687 O.3     1  UNL1       -0.3810
     23 H          59.1437   90.4554   11.4779 H       1  UNL1        0.2105
     24 C          62.4640   90.3414   10.7817 C.3     1  UNL1        0.1075
     25 N          63.1858   89.1523   11.3432 N.am    1  UNL1       -0.2695
     26 C          63.1150   88.8568   12.8121 C.2     1  UNL1        0.4020
     27 O          62.3225   89.7505   13.7196 O.2     1  UNL1       -0.2264
     28 H          63.7059   88.5658   10.7476 H       1  UNL1        0.1528
     29 O          63.8368   87.6679   13.3736 O.3     1  UNL1       -0.4291
     30 C          64.4419   87.7363   14.7444 C.3     1  UNL1        0.2447
     31 C          63.6775   87.2220   15.9282 C.ar    1  UNL1        0.0714
     32 C          63.0495   88.0585   17.0033 C.ar    1  UNL1        0.1053
     33 N          62.3908   87.1344   17.9843 N.ar    1  UNL1       -0.2350
     34 C          62.6118   85.7268   17.5154 C.ar    1  UNL1        0.1343
     35 S          63.4070   85.7809   16.2447 S.2     1  UNL1       -0.0652
     36 C          63.2299   91.5750   10.4060 C.3     1  UNL1        0.0485
     37 C          64.4922   91.9257   11.1365 C.ar    1  UNL1       -0.0204
     38 C          65.7206   92.3133   10.3679 C.ar    1  UNL1       -0.0042
     39 C          66.9829   92.6640   11.0986 C.ar    1  UNL1       -0.0003
     40 C          67.0167   92.6270   12.5977 C.ar    1  UNL1       -0.0000
     41 C          65.7883   92.2394   13.3663 C.ar    1  UNL1       -0.0003
     42 C          64.5260   91.8888   12.6357 C.ar    1  UNL1       -0.0042
     43 C          60.0161   87.5446    9.8856 C.3     1  UNL1        0.0937
     44 C          61.6135   85.9293   11.1462 C.3     1  UNL1        0.0018
     45 C          61.2012   86.6250    9.8829 C.3     1  UNL1        0.0199
     46 C          61.9740   86.4012    8.6169 C.3     1  UNL1        0.0018
@<TRIPOS>BOND
     1    44    45    1
     2    45    46    1
     3    45    43    1
     4    43     1    1
     5     1    20    1
     6    20    21    1
     7    21    22    1
     8    21    24    1
     9    24    36    1
    10    36    37    1
    11    37    38   ar
    12    38    39   ar
    13    39    40   ar
    14    40    41   ar
    15    41    42   ar
    16    24    25    1
    17    25    26   am
    18    26    27    2
    19    26    29    1
    20    29    30    1
    21    30    31    1
    22    31    32   ar
    23    32    33   ar
    24    33    34   ar
    25    34    35   ar
    26     1     2   am
    27     2     3    2
    28     2     4    1
    29     4     5   ar
    30     5     6   ar
    31     6     7   ar
    32     7     8   ar
    33     8     9   ar
    34     9    13    1
    35    13    15    1
    36    15    16    1
    37    16    17    1
    38    17    18    1
    39    17    19    1
    40     9    10   ar
    41    10    11   ar
    42    11    12   ar
    43    42    37   ar
    44    35    31   ar
    45    12     4   ar
    46    11     7   ar
    47    22    23    1
    48    25    28    1
    49    13    14    1
@<TRIPOS>MOLECULE
*****
 46 49 0 0 0
SMALL
GASTEIGER

@<TRIPOS>ATOM
      1 N          61.1605   87.7864   10.3599 N.am    1  UNL1       -0.2735
      2 C          61.0986   89.2831   10.4368 C.2     1  UNL1        0.2492
      3 O          59.9065   90.0134    9.8932 O.2     1  UNL1       -0.2699
      4 C          62.2288   90.0496   11.0575 C.ar    1  UNL1        0.0567
      5 C          62.6616   89.7430   12.4606 C.ar    1  UNL1        0.0063
      6 C          63.7918   90.5095   13.0811 C.ar    1  UNL1        0.0225
      7 C          64.4892   91.5826   12.2987 C.ar    1  UNL1        0.1202
      8 N          65.6265   92.4979   12.6434 N.ar    1  UNL1       -0.1948
      9 C          65.8964   93.3702   11.4534 C.ar    1  UNL1        0.2891
     10 O          64.9261   92.9939   10.3732 O.2     1  UNL1       -0.4239
     11 C          64.0563   91.8891   10.8956 C.ar    1  UNL1        0.1662
     12 C          62.9261   91.1227   10.2750 C.ar    1  UNL1        0.0437
     13 N          66.9516   94.4323   11.3599 N.pl3   1  UNL1       -0.2869
     14 H          67.8996   94.1964   11.4818 H       1  UNL1        0.1512
     15 C          66.5623   95.8537   11.0806 C.3     1  UNL1        0.1084
     16 C          67.1060   96.5567    9.8723 C.3     1  UNL1        0.0937
     17 N          66.7860   96.0444    8.4992 N.3     1  UNL1       -0.2689
     18 C          65.9240   96.8557    7.5781 C.3     1  UNL1        0.0897
     19 C          67.3281   94.7208    8.0474 C.3     1  UNL1        0.0897
     20 C          62.3526   87.0561   10.9036 C.3     1  UNL1        0.1245
     21 C          62.6990   85.6929   10.3821 C.3     1  UNL1        0.1484
     22 O          62.9517   85.4922    8.9173 O.3     1  UNL1       -0.3810
     23 H          62.8512   86.3379    8.4530 H       1  UNL1        0.2105
     24 C          62.7927   84.5306   11.3256 C.3     1  UNL1        0.1075
     25 N          63.2885   84.7393   12.7259 N.am    1  UNL1       -0.2695
     26 C          64.5605   84.0843   13.1765 C.2     1  UNL1        0.4020
     27 O          65.3367   83.2207   12.2268 O.2     1  UNL1       -0.2264
     28 H          62.7791   85.3061   13.3491 H       1  UNL1        0.1528
     29 O          65.0563   84.2930   14.5767 O.3     1  UNL1       -0.4291
     30 C          64.0810   84.5463   15.6878 C.3     1  UNL1        0.2447
     31 C          63.7199   85.9531   16.0626 C.ar    1  UNL1        0.0714
     32 C          64.0830   87.1905   15.2965 C.ar    1  UNL1        0.1053
     33 N          63.5198   88.3717   16.0297 N.ar    1  UNL1       -0.2350
     34 C          62.8086   87.8643   17.2490 C.ar    1  UNL1        0.1343
     35 S          62.9322   86.3695   17.2693 S.2     1  UNL1       -0.0652
     36 C          62.3907   83.1596   10.8688 C.3     1  UNL1        0.0485
     37 C          62.3067   82.0344   11.8572 C.ar    1  UNL1       -0.0204
     38 C          62.8379   80.6786   11.4972 C.ar    1  UNL1       -0.0042
     39 C          62.7539   79.5534   12.4856 C.ar    1  UNL1       -0.0003
     40 C          62.1387   79.7841   13.8341 C.ar    1  UNL1       -0.0000
     41 C          61.6075   81.1399   14.1941 C.ar    1  UNL1       -0.0003
     42 C          61.6915   82.2650   13.2057 C.ar    1  UNL1       -0.0042
     43 C          60.0302   87.0199    9.7392 C.3     1  UNL1        0.0937
     44 C          59.2765   88.1704    7.5351 C.3     1  UNL1        0.0018
     45 C          59.8723   86.9927    8.2478 C.3     1  UNL1        0.0199
     46 C          60.3103   85.7877    7.4691 C.3     1  UNL1        0.0018
@<TRIPOS>BOND
     1    44    45    1
     2    45    46    1
     3    45    43    1
     4    43     1    1
     5     1    20    1
     6    20    21    1
     7    21    22    1
     8    21    24    1
     9    24    36    1
    10    36    37    1
    11    37    38   ar
    12    38    39   ar
    13    39    40   ar
    14    40    41   ar
    15    41    42   ar
    16    24    25    1
    17    25    26   am
    18    26    27    2
    19    26    29    1
    20    29    30    1
    21    30    31    1
    22    31    32   ar
    23    32    33   ar
    24    33    34   ar
    25    34    35   ar
    26     1     2   am
    27     2     3    2
    28     2     4    1
    29     4     5   ar
    30     5     6   ar
    31     6     7   ar
    32     7     8   ar
    33     8     9   ar
    34     9    13    1
    35    13    15    1
    36    15    16    1
    37    16    17    1
    38    17    18    1
    39    17    19    1
    40     9    10   ar
    41    10    11   ar
    42    11    12   ar
    43    42    37   ar
    44    35    31   ar
    45    12     4   ar
    46    11     7   ar
    47    22    23    1
    48    25    28    1
    49    13    14    1
@<TRIPOS>MOLECULE
*****
 46 49 0 0 0
SMALL
GASTEIGER

@<TRIPOS>ATOM
      1 N          61.1637   88.0282   10.0474 N.am    1  UNL1       -0.2735
      2 C          60.9753   89.3799   10.6698 C.2     1  UNL1        0.2492
      3 O          59.6069   89.9906   10.7367 O.2     1  UNL1       -0.2699
      4 C          62.1553   90.1209   11.2254 C.ar    1  UNL1        0.0567
      5 C          62.6485   89.8165   12.6088 C.ar    1  UNL1        0.0063
      6 C          63.8285   90.5574   13.1643 C.ar    1  UNL1        0.0225
      7 C          64.5152   91.6028   12.3363 C.ar    1  UNL1        0.1202
      8 N          65.6927   92.4897   12.6143 N.ar    1  UNL1       -0.1948
      9 C          65.9271   93.3422   11.4026 C.ar    1  UNL1        0.2891
     10 O          64.8946   92.9822   10.3758 O.2     1  UNL1       -0.4239
     11 C          64.0220   91.9072   10.9529 C.ar    1  UNL1        0.1662
     12 C          62.8420   91.1663   10.3974 C.ar    1  UNL1        0.0437
     13 N          67.0049   94.3736   11.2453 N.pl3   1  UNL1       -0.2869
     14 H          67.9511   94.1122   11.3202 H       1  UNL1        0.1512
     15 C          66.6409   95.8032   10.9738 C.3     1  UNL1        0.1084
     16 C          67.1913   96.5008    9.7653 C.3     1  UNL1        0.0937
     17 N          66.8352   96.0147    8.3916 N.3     1  UNL1       -0.2689
     18 C          67.3427   94.6876    7.9107 C.3     1  UNL1        0.0897
     19 C          65.9717   96.8556    7.4989 C.3     1  UNL1        0.0897
     20 C          62.5321   87.4175    9.9804 C.3     1  UNL1        0.1245
     21 C          62.6849   85.9423    9.7553 C.3     1  UNL1        0.1484
     22 O          63.1283   85.4298    8.4172 O.3     1  UNL1       -0.3810
     23 H          63.2725   86.1774    7.8162 H       1  UNL1        0.2105
     24 C          62.3941   84.9797   10.8684 C.3     1  UNL1        0.1075
     25 N          62.3211   83.5080   10.5873 N.am    1  UNL1       -0.2695
     26 C          63.5793   82.7262   10.3516 C.2     1  UNL1        0.4020
     27 O          64.9106   83.4160   10.3969 O.2     1  UNL1       -0.2264
     28 H          61.4474   83.0553   10.5576 H       1  UNL1        0.1528
     29 O          63.5063   81.2546   10.0705 O.3     1  UNL1       -0.4291
     30 C          63.0087   80.3131   11.1269 C.3     1  UNL1        0.2447
     31 C          62.8465   80.7894   12.5400 C.ar    1  UNL1        0.0714
     32 C          63.9552   81.0378   13.5194 C.ar    1  UNL1        0.1053
     33 N          63.3411   81.5029   14.8065 N.ar    1  UNL1       -0.2350
     34 C          61.8529   81.5418   14.6226 C.ar    1  UNL1        0.1343
     35 S          61.5472   81.1009   13.2218 S.2     1  UNL1       -0.0652
     36 C          62.1764   85.4887   12.2624 C.3     1  UNL1        0.0485
     37 C          63.3337   85.5975   13.2104 C.ar    1  UNL1       -0.0204
     38 C          63.6191   86.8990   13.8994 C.ar    1  UNL1       -0.0042
     39 C          64.7766   87.0077   14.8474 C.ar    1  UNL1       -0.0003
     40 C          65.6485   85.8150   15.1064 C.ar    1  UNL1       -0.0000
     41 C          65.3631   84.5135   14.4174 C.ar    1  UNL1       -0.0003
     42 C          64.2057   84.4047   13.4694 C.ar    1  UNL1       -0.0042
     43 C          59.9837   87.2872    9.4918 C.3     1  UNL1        0.0937
     44 C          59.3416   88.5239    7.2990 C.3     1  UNL1        0.0018
     45 C          59.7406   87.2658    8.0118 C.3     1  UNL1        0.0199
     46 C          59.8964   85.9863    7.2445 C.3     1  UNL1        0.0018
@<TRIPOS>BOND
     1    44    45    1
     2    45    46    1
     3    45    43    1
     4    43     1    1
     5     1    20    1
     6    20    21    1
     7    21    22    1
     8    21    24    1
     9    24    36    1
    10    36    37    1
    11    37    38   ar
    12    38    39   ar
    13    39    40   ar
    14    40    41   ar
    15    41    42   ar
    16    24    25    1
    17    25    26   am
    18    26    27    2
    19    26    29    1
    20    29    30    1
    21    30    31    1
    22    31    32   ar
    23    32    33   ar
    24    33    34   ar
    25    34    35   ar
    26     1     2   am
    27     2     3    2
    28     2     4    1
    29     4     5   ar
    30     5     6   ar
    31     6     7   ar
    32     7     8   ar
    33     8     9   ar
    34     9    13    1
    35    13    15    1
    36    15    16    1
    37    16    17    1
    38    17    18    1
    39    17    19    1
    40     9    10   ar
    41    10    11   ar
    42    11    12   ar
    43    42    37   ar
    44    35    31   ar
    45    12     4   ar
    46    11     7   ar
    47    22    23    1
    48    25    28    1
    49    13    14    1
