@<TRIPOS>MOLECULE
*****
 35 39 0 0 0
SMALL
GASTEIGER

@<TRIPOS>ATOM
      1 O          63.4013   87.5930   12.1549 O.2     1  UNL1       -0.2522
      2 C          63.9237   87.0405   13.4480 C.2     1  UNL1        0.3081
      3 N          64.6254   87.9422   14.4198 N.am    1  UNL1       -0.2681
      4 N          63.7442   85.5863   13.7691 N.am    1  UNL1       -0.2576
      5 C          64.2666   85.0338   15.0621 C.3     1  UNL1        0.1018
      6 C          64.0872   83.5796   15.3833 C.3     1  UNL1        0.0671
      7 C          63.3855   82.6779   14.4114 C.ar    1  UNL1        0.0586
      8 N          63.2061   81.2237   14.7326 N.ar    1  UNL1       -0.2483
      9 C          62.5044   80.3220   13.7607 C.ar    1  UNL1        0.0984
     10 C          61.9820   80.8745   12.4677 C.ar    1  UNL1        0.0204
     11 C          62.1614   82.3287   12.1465 C.ar    1  UNL1        0.0004
     12 C          62.8631   83.2304   13.1184 C.ar    1  UNL1        0.0136
     13 C          63.0425   84.6846   12.7972 C.3     1  UNL1        0.1231
     14 H          64.9682   87.5796   15.2685 H       1  UNL1        0.1564
     15 C          62.5202   85.2371   11.5042 C.ar    1  UNL1        0.0000
     16 C          63.2161   84.9144   10.2151 C.ar    1  UNL1       -0.0015
     17 C          62.6937   85.4669    8.9221 C.ar    1  UNL1        0.0111
     18 C          61.4755   86.3421    8.9182 C.ar    1  UNL1        0.0577
     19 CL         60.9531   86.8946    7.6252 Cl      1  UNL1       -0.0822
     20 C          60.7796   86.6648   10.2072 C.ar    1  UNL1        0.0111
     21 C          61.3020   86.1123   11.5002 C.ar    1  UNL1       -0.0015
     22 C          64.8048   89.3963   14.0986 C.ar    1  UNL1        0.0518
     23 C          65.8794   90.1885   14.7825 C.ar    1  UNL1        0.0178
     24 C          66.0587   91.6427   14.4613 C.ar    1  UNL1        0.0388
     25 C          65.1635   92.3047   13.4563 C.ar    1  UNL1        0.1454
     26 C          64.0889   91.5126   12.7724 C.ar    1  UNL1        0.0388
     27 C          63.9095   90.0584   13.0935 C.ar    1  UNL1        0.0178
     28 O          65.3429   93.7589   13.1351 O.3     1  UNL1       -0.4535
     29 C          66.0177   94.1675   11.8593 C.ar    1  UNL1        0.1454
     30 C          66.6242   93.1271   10.9651 C.ar    1  UNL1        0.0398
     31 C          67.2990   93.5358    9.6893 C.ar    1  UNL1        0.0328
     32 C          67.3673   94.9848    9.3077 C.ar    1  UNL1        0.1403
     33 F          68.0421   95.3934    8.0319 F       1  UNL1       -0.2042
     34 C          66.7608   96.0253   10.2020 C.ar    1  UNL1        0.0328
     35 C          66.0860   95.6166   11.4778 C.ar    1  UNL1        0.0398
@<TRIPOS>BOND
     1     1     2    2
     2     2     3   am
     3     3    22    1
     4    22    23   ar
     5    23    24   ar
     6    24    25   ar
     7    25    28    1
     8    28    29    1
     9    29    30   ar
    10    30    31   ar
    11    31    32   ar
    12    32    33    1
    13    32    34   ar
    14    34    35   ar
    15    25    26   ar
    16    26    27   ar
    17     2     4   am
    18     4     5    1
    19     5     6    1
    20     6     7    1
    21     7     8   ar
    22     8     9   ar
    23     9    10   ar
    24    10    11   ar
    25    11    12   ar
    26    12    13    1
    27    13    15    1
    28    15    16   ar
    29    16    17   ar
    30    17    18   ar
    31    18    19    1
    32    18    20   ar
    33    20    21   ar
    34    27    22   ar
    35    13     4    1
    36    21    15   ar
    37    35    29   ar
    38    12     7   ar
    39     3    14    1
@<TRIPOS>MOLECULE
*****
 35 39 0 0 0
SMALL
GASTEIGER

@<TRIPOS>ATOM
      1 O          71.9886   74.4113   12.6935 O.2     1  UNL1       -0.2522
      2 C          71.7065   74.7053   14.1371 C.2     1  UNL1        0.3081
      3 N          71.6034   76.1260   14.6069 N.am    1  UNL1       -0.2681
      4 N          71.5275   73.5784   15.1109 N.am    1  UNL1       -0.2576
      5 C          71.2455   73.8723   16.5545 C.3     1  UNL1        0.1018
      6 C          71.0665   72.7456   17.5282 C.3     1  UNL1        0.0671
      7 C          71.1696   71.3247   17.0584 C.ar    1  UNL1        0.0586
      8 N          70.9906   70.1979   18.0322 N.ar    1  UNL1       -0.2483
      9 C          71.0937   68.7772   17.5623 C.ar    1  UNL1        0.0984
     10 C          71.3758   68.4832   16.1187 C.ar    1  UNL1        0.0204
     11 C          71.5548   69.6100   15.1449 C.ar    1  UNL1        0.0004
     12 C          71.4517   71.0308   15.6148 C.ar    1  UNL1        0.0136
     13 C          71.6306   72.1576   14.6410 C.3     1  UNL1        0.1231
     14 H          71.4183   76.3189   15.5544 H       1  UNL1        0.1564
     15 C          71.9127   71.8637   13.1974 C.ar    1  UNL1        0.0000
     16 C          70.7779   71.6518   12.2395 C.ar    1  UNL1       -0.0015
     17 C          71.0600   71.3578   10.7959 C.ar    1  UNL1        0.0111
     18 C          72.4769   71.2758   10.3102 C.ar    1  UNL1        0.0577
     19 CL         72.7589   70.9818    8.8665 Cl      1  UNL1       -0.0822
     20 C          73.6116   71.4877   11.2680 C.ar    1  UNL1        0.0111
     21 C          73.3295   71.7817   12.7116 C.ar    1  UNL1       -0.0015
     22 C          71.7824   77.2528   13.6332 C.ar    1  UNL1        0.0518
     23 C          72.7379   78.3669   13.9426 C.ar    1  UNL1        0.0178
     24 C          72.9169   79.4937   12.9688 C.ar    1  UNL1        0.0388
     25 C          72.1403   79.5064   11.6855 C.ar    1  UNL1        0.1454
     26 C          71.1848   78.3923   11.3761 C.ar    1  UNL1        0.0388
     27 C          71.0058   77.2656   12.3498 C.ar    1  UNL1        0.0178
     28 O          72.3193   80.6332   10.7118 O.3     1  UNL1       -0.4535
     29 C          72.3281   80.3563    9.2376 C.ar    1  UNL1        0.1454
     30 C          73.2802   79.3457    8.6700 C.ar    1  UNL1        0.0398
     31 C          73.2889   79.0688    7.1958 C.ar    1  UNL1        0.0328
     32 C          72.3456   79.8023    6.2892 C.ar    1  UNL1        0.1403
     33 F          72.3543   79.5254    4.8150 F       1  UNL1       -0.2042
     34 C          71.3934   80.8129    6.8569 C.ar    1  UNL1        0.0328
     35 C          71.3846   81.0899    8.3310 C.ar    1  UNL1        0.0398
@<TRIPOS>BOND
     1     1     2    2
     2     2     3   am
     3     3    22    1
     4    22    23   ar
     5    23    24   ar
     6    24    25   ar
     7    25    28    1
     8    28    29    1
     9    29    30   ar
    10    30    31   ar
    11    31    32   ar
    12    32    33    1
    13    32    34   ar
    14    34    35   ar
    15    25    26   ar
    16    26    27   ar
    17     2     4   am
    18     4     5    1
    19     5     6    1
    20     6     7    1
    21     7     8   ar
    22     8     9   ar
    23     9    10   ar
    24    10    11   ar
    25    11    12   ar
    26    12    13    1
    27    13    15    1
    28    15    16   ar
    29    16    17   ar
    30    17    18   ar
    31    18    19    1
    32    18    20   ar
    33    20    21   ar
    34    27    22   ar
    35    13     4    1
    36    21    15   ar
    37    35    29   ar
    38    12     7   ar
    39     3    14    1
@<TRIPOS>MOLECULE
*****
 35 39 0 0 0
SMALL
GASTEIGER

@<TRIPOS>ATOM
      1 O          64.2272   91.6758   10.7863 O.2     1  UNL1       -0.2522
      2 C          63.8482   91.1204   12.1272 C.2     1  UNL1        0.3081
      3 N          62.6388   90.2433   12.2611 N.am    1  UNL1       -0.2681
      4 N          64.6787   91.4423   13.3342 N.am    1  UNL1       -0.2576
      5 C          64.2997   90.8869   14.6751 C.3     1  UNL1        0.1018
      6 C          65.1302   91.2087   15.8821 C.3     1  UNL1        0.0671
      7 C          66.3396   92.0859   15.7482 C.ar    1  UNL1        0.0586
      8 N          67.1700   92.4076   16.9552 N.ar    1  UNL1       -0.2483
      9 C          68.3794   93.2848   16.8212 C.ar    1  UNL1        0.0984
     10 C          68.7584   93.8401   15.4804 C.ar    1  UNL1        0.0204
     11 C          67.9280   93.5184   14.2734 C.ar    1  UNL1        0.0004
     12 C          66.7186   92.6412   14.4073 C.ar    1  UNL1        0.0136
     13 C          65.8881   92.3194   13.2003 C.3     1  UNL1        0.1231
     14 H          62.3901   89.8788   13.1412 H       1  UNL1        0.1564
     15 C          66.2670   92.8748   11.8594 C.ar    1  UNL1        0.0000
     16 C          65.6905   94.1806   11.3983 C.ar    1  UNL1       -0.0015
     17 C          66.0695   94.7360   10.0575 C.ar    1  UNL1        0.0111
     18 C          67.0250   93.9855    9.1777 C.ar    1  UNL1        0.0577
     19 CL         67.4039   94.5409    7.8368 Cl      1  UNL1       -0.0822
     20 C          67.6014   92.6797    9.6388 C.ar    1  UNL1        0.0111
     21 C          67.2224   92.1244   10.9796 C.ar    1  UNL1       -0.0015
     22 C          61.8084   89.9215   11.0542 C.ar    1  UNL1        0.0518
     23 C          62.2186   88.8079   10.1368 C.ar    1  UNL1        0.0178
     24 C          61.3881   88.4862    8.9297 C.ar    1  UNL1        0.0388
     25 C          60.1475   89.2780    8.6402 C.ar    1  UNL1        0.1454
     26 C          59.7373   90.3916    9.5576 C.ar    1  UNL1        0.0388
     27 C          60.5678   90.7134   10.7645 C.ar    1  UNL1        0.0178
     28 O          59.3171   88.9562    7.4332 O.3     1  UNL1       -0.4535
     29 C          59.2213   89.9398    6.3048 C.ar    1  UNL1        0.1454
     30 C          60.4630   90.3854    5.5909 C.ar    1  UNL1        0.0398
     31 C          60.3672   91.3690    4.4624 C.ar    1  UNL1        0.0328
     32 C          59.0299   91.9070    4.0479 C.ar    1  UNL1        0.1403
     33 F          58.9341   92.8906    2.9194 F       1  UNL1       -0.2042
     34 C          57.7881   91.4614    4.7618 C.ar    1  UNL1        0.0328
     35 C          57.8838   90.4778    5.8902 C.ar    1  UNL1        0.0398
@<TRIPOS>BOND
     1     1     2    2
     2     2     3   am
     3     3    22    1
     4    22    23   ar
     5    23    24   ar
     6    24    25   ar
     7    25    28    1
     8    28    29    1
     9    29    30   ar
    10    30    31   ar
    11    31    32   ar
    12    32    33    1
    13    32    34   ar
    14    34    35   ar
    15    25    26   ar
    16    26    27   ar
    17     2     4   am
    18     4     5    1
    19     5     6    1
    20     6     7    1
    21     7     8   ar
    22     8     9   ar
    23     9    10   ar
    24    10    11   ar
    25    11    12   ar
    26    12    13    1
    27    13    15    1
    28    15    16   ar
    29    16    17   ar
    30    17    18   ar
    31    18    19    1
    32    18    20   ar
    33    20    21   ar
    34    27    22   ar
    35    13     4    1
    36    21    15   ar
    37    35    29   ar
    38    12     7   ar
    39     3    14    1
