@<TRIPOS>MOLECULE
*****
 34 36 0 0 0
SMALL
GASTEIGER

@<TRIPOS>ATOM
      1 C          63.2019   90.9859   11.7279 C.3     1  UNL1        0.1695
      2 C          64.2722   91.9105   11.2281 C.3     1  UNL1        0.1271
      3 N          65.3741   92.5706   12.0027 N.am    1  UNL1       -0.2553
      4 C          66.2939   93.4482   11.2064 C.2     1  UNL1        0.2294
      5 O          67.4295   94.1556   11.8848 O.2     1  UNL1       -0.2745
      6 C          65.6780   92.4694   13.4681 C.ar    1  UNL1        0.0676
      7 C          66.8755   93.2936   13.8377 C.ar    1  UNL1        0.0162
      8 C          67.3499   93.3313   15.2602 C.ar    1  UNL1        0.0014
      9 C          66.6268   92.5448   16.3130 C.ar    1  UNL1        0.0014
     10 C          65.4293   91.7206   15.9434 C.ar    1  UNL1        0.0162
     11 C          64.9549   91.6829   14.5210 C.ar    1  UNL1        0.0679
     12 N          63.7494   90.8034   14.3684 N.am    1  UNL1       -0.2518
     13 C          62.9692   90.4932   13.1254 C.2     1  UNL1        0.2493
     14 O          61.8021   89.5680   13.3034 O.2     1  UNL1       -0.2727
     15 C          62.1174   89.0174   10.4246 C.2     1  UNL1        0.2371
     16 O          62.9634   88.0440   11.1908 O.2     1  UNL1       -0.2737
     17 N          62.2366   90.4883   10.6932 N.am    1  UNL1       -0.2959
     18 H          61.6814   91.1271   10.1903 H       1  UNL1        0.1499
     19 C          61.1521   88.5197    9.3899 C.3     1  UNL1        0.1316
     20 C          61.0447   87.0500    9.1097 C.3     1  UNL1        0.0270
     21 C          59.5092   89.0308    7.4432 C.3     1  UNL1        0.0862
     22 N          60.2942   89.4917    8.6354 N.3     1  UNL1       -0.2902
     23 H          59.6217   89.8703    9.3024 H       1  UNL1        0.1237
     24 C          66.0782   93.6184    9.7318 C.3     1  UNL1        0.0856
     25 C          67.2357   93.9517    8.8380 C.3     1  UNL1        0.0091
     26 C          68.3571   92.9704    8.6659 C.3     1  UNL1        0.0005
     27 C          67.2719   95.2662    8.1163 C.3     1  UNL1        0.0005
     28 C          63.2592   90.1473   15.6251 C.3     1  UNL1        0.1248
     29 C          63.4660   88.6762   15.8331 C.ar    1  UNL1       -0.0020
     30 C          64.2835   87.8880   14.8531 C.ar    1  UNL1       -0.0026
     31 C          64.4903   86.4169   15.0610 C.ar    1  UNL1       -0.0003
     32 C          63.8797   85.7342   16.2489 C.ar    1  UNL1       -0.0000
     33 C          63.0623   86.5225   17.2289 C.ar    1  UNL1       -0.0003
     34 C          62.8554   87.9936   17.0210 C.ar    1  UNL1       -0.0026
@<TRIPOS>BOND
     1    21    22    1
     2    22    19    1
     3    19    20    1
     4    19    15    1
     5    15    16    2
     6    15    17   am
     7     1    17    1
     8     1     2    1
     9     2     3    1
    10     3     4   am
    11     4     5    2
    12     4    24    1
    13    24    25    1
    14    25    26    1
    15    25    27    1
    16     3     6    1
    17     6     7   ar
    18     7     8   ar
    19     8     9   ar
    20     9    10   ar
    21    10    11   ar
    22    11    12    1
    23    12    28    1
    24    28    29    1
    25    29    30   ar
    26    30    31   ar
    27    31    32   ar
    28    32    33   ar
    29    33    34   ar
    30    12    13   am
    31    13    14    2
    32    13     1    1
    33    11     6   ar
    34    34    29   ar
    35    22    23    1
    36    17    18    1
@<TRIPOS>MOLECULE
*****
 34 36 0 0 0
SMALL
GASTEIGER

@<TRIPOS>ATOM
      1 C          62.5309   84.9003   11.8749 C.3     1  UNL1        0.1695
      2 C          61.8660   85.5518   10.6987 C.3     1  UNL1        0.1271
      3 N          61.8215   87.0068   10.3372 N.am    1  UNL1       -0.2553
      4 C          61.0679   87.3435    9.0847 C.2     1  UNL1        0.2294
      5 O          60.9626   88.7701    8.6331 O.2     1  UNL1       -0.2745
      6 C          62.4310   88.1699   11.0624 C.ar    1  UNL1        0.0676
      7 C          62.1482   89.4639   10.3585 C.ar    1  UNL1        0.0162
      8 C          62.6699   90.7530   10.9205 C.ar    1  UNL1        0.0014
      9 C          63.4744   90.7481   12.1866 C.ar    1  UNL1        0.0014
     10 C          63.7571   89.4541   12.8905 C.ar    1  UNL1        0.0162
     11 C          63.2354   88.1650   12.3285 C.ar    1  UNL1        0.0679
     12 N          63.6291   86.9959   13.1819 N.am    1  UNL1       -0.2518
     13 C          63.3156   85.5430   12.9801 C.2     1  UNL1        0.2493
     14 O          63.8585   84.6093   14.0209 O.2     1  UNL1       -0.2727
     15 C          63.3976   82.5244   11.2799 C.2     1  UNL1        0.2371
     16 O          64.5403   83.1314   10.5209 O.2     1  UNL1       -0.2737
     17 N          62.3929   83.4089   11.9569 N.am    1  UNL1       -0.2959
     18 H          61.6430   83.0106   12.4550 H       1  UNL1        0.1499
     19 C          63.2596   81.0330   11.3618 C.3     1  UNL1        0.1316
     20 C          63.1327   80.2215   10.1066 C.3     1  UNL1        0.0270
     21 C          61.9944   80.3366   13.5214 C.3     1  UNL1        0.0862
     22 N          63.2486   80.3532   12.6988 N.3     1  UNL1       -0.2902
     23 H          63.5071   79.3799   12.5364 H       1  UNL1        0.1237
     24 C          60.4196   86.2535    8.2836 C.3     1  UNL1        0.0856
     25 C          61.2565   85.3625    7.4142 C.3     1  UNL1        0.0091
     26 C          60.6187   84.5910    6.2971 C.3     1  UNL1        0.0005
     27 C          62.7311   85.2431    7.6620 C.3     1  UNL1        0.0005
     28 C          64.4441   87.3230   14.3979 C.3     1  UNL1        0.1248
     29 C          63.8128   87.2793   15.7580 C.ar    1  UNL1       -0.0020
     30 C          63.5643   85.9601   16.4273 C.ar    1  UNL1       -0.0026
     31 C          62.9331   85.9163   17.7873 C.ar    1  UNL1       -0.0003
     32 C          62.5504   87.1917   18.4780 C.ar    1  UNL1       -0.0000
     33 C          62.7990   88.5109   17.8086 C.ar    1  UNL1       -0.0003
     34 C          63.4302   88.5547   16.4486 C.ar    1  UNL1       -0.0026
@<TRIPOS>BOND
     1    21    22    1
     2    22    19    1
     3    19    20    1
     4    19    15    1
     5    15    16    2
     6    15    17   am
     7     1    17    1
     8     1     2    1
     9     2     3    1
    10     3     4   am
    11     4     5    2
    12     4    24    1
    13    24    25    1
    14    25    26    1
    15    25    27    1
    16     3     6    1
    17     6     7   ar
    18     7     8   ar
    19     8     9   ar
    20     9    10   ar
    21    10    11   ar
    22    11    12    1
    23    12    28    1
    24    28    29    1
    25    29    30   ar
    26    30    31   ar
    27    31    32   ar
    28    32    33   ar
    29    33    34   ar
    30    12    13   am
    31    13    14    2
    32    13     1    1
    33    11     6   ar
    34    34    29   ar
    35    22    23    1
    36    17    18    1
@<TRIPOS>MOLECULE
*****
 34 36 0 0 0
SMALL
GASTEIGER

@<TRIPOS>ATOM
      1 C          62.1152   87.7773   10.3470 C.3     1  UNL1        0.1695
      2 C          62.3417   86.4118   10.9251 C.3     1  UNL1        0.1271
      3 N          62.9434   86.0449   12.2492 N.am    1  UNL1       -0.2553
      4 C          63.0332   84.5758   12.5386 C.2     1  UNL1        0.2294
      5 O          63.6190   84.1011   13.8354 O.2     1  UNL1       -0.2745
      6 C          63.4672   86.9527   13.3223 C.ar    1  UNL1        0.0676
      7 C          63.9861   86.1735   14.4943 C.ar    1  UNL1        0.0162
      8 C          64.5565   86.8933   15.6802 C.ar    1  UNL1        0.0014
      9 C          64.6080   88.3924   15.6941 C.ar    1  UNL1        0.0014
     10 C          64.0891   89.1716   14.5222 C.ar    1  UNL1        0.0162
     11 C          63.5187   88.4517   13.3363 C.ar    1  UNL1        0.0679
     12 N          63.0591   89.4131   12.2806 N.am    1  UNL1       -0.2518
     13 C          62.4345   89.1131   10.9502 C.2     1  UNL1        0.2493
     14 O          62.0827   90.3064   10.1124 O.2     1  UNL1       -0.2727
     15 C          60.0263   88.1237    8.8417 C.2     1  UNL1        0.2371
     16 O          59.1950   88.4015   10.0590 O.2     1  UNL1       -0.2737
     17 N          61.4863   87.8116    8.9857 N.am    1  UNL1       -0.2959
     18 H          62.0318   87.6292    8.1867 H       1  UNL1        0.1499
     19 C          59.3973   88.1579    7.4803 C.3     1  UNL1        0.1316
     20 C          59.1618   89.4718    6.7958 C.3     1  UNL1        0.0270
     21 C          59.7621   85.6158    7.0876 C.3     1  UNL1        0.0862
     22 N          59.0039   86.8785    6.8034 N.3     1  UNL1       -0.2902
     23 H          58.0311   86.7004    7.0531 H       1  UNL1        0.1237
     24 C          62.5371   83.5813   11.5311 C.3     1  UNL1        0.0856
     25 C          63.3801   82.3938   11.1715 C.3     1  UNL1        0.0091
     26 C          64.5709   82.5633   10.2752 C.3     1  UNL1        0.0005
     27 C          63.0323   81.0369   11.7082 C.3     1  UNL1        0.0005
     28 C          63.2493   90.8670   12.5971 C.3     1  UNL1        0.1248
     29 C          64.5210   91.5597   12.2059 C.ar    1  UNL1       -0.0020
     30 C          64.7096   92.0424   10.7983 C.ar    1  UNL1       -0.0026
     31 C          65.9813   92.7351   10.4071 C.ar    1  UNL1       -0.0003
     32 C          67.0643   92.9451   11.4235 C.ar    1  UNL1       -0.0000
     33 C          66.8756   92.4624   12.8312 C.ar    1  UNL1       -0.0003
     34 C          65.6039   91.7697   13.2224 C.ar    1  UNL1       -0.0026
@<TRIPOS>BOND
     1    21    22    1
     2    22    19    1
     3    19    20    1
     4    19    15    1
     5    15    16    2
     6    15    17   am
     7     1    17    1
     8     1     2    1
     9     2     3    1
    10     3     4   am
    11     4     5    2
    12     4    24    1
    13    24    25    1
    14    25    26    1
    15    25    27    1
    16     3     6    1
    17     6     7   ar
    18     7     8   ar
    19     8     9   ar
    20     9    10   ar
    21    10    11   ar
    22    11    12    1
    23    12    28    1
    24    28    29    1
    25    29    30   ar
    26    30    31   ar
    27    31    32   ar
    28    32    33   ar
    29    33    34   ar
    30    12    13   am
    31    13    14    2
    32    13     1    1
    33    11     6   ar
    34    34    29   ar
    35    22    23    1
    36    17    18    1
@<TRIPOS>MOLECULE
*****
 34 36 0 0 0
SMALL
GASTEIGER

@<TRIPOS>ATOM
      1 C          62.3455   86.7435   10.3890 C.3     1  UNL1        0.1695
      2 C          62.6175   87.8575   11.3560 C.3     1  UNL1        0.1271
      3 N          63.3123   87.7944   12.6839 N.am    1  UNL1       -0.2553
      4 C          63.4280   89.0960   13.4203 C.2     1  UNL1        0.2294
      5 O          64.1055   89.1434   14.7579 O.2     1  UNL1       -0.2745
      6 C          63.9067   86.6018   13.3727 C.ar    1  UNL1        0.0676
      7 C          64.5099   86.9764   14.6940 C.ar    1  UNL1        0.0162
      8 C          65.1594   85.9269   15.5464 C.ar    1  UNL1        0.0014
      9 C          65.2058   84.5028   15.0775 C.ar    1  UNL1        0.0014
     10 C          64.6027   84.1283   13.7562 C.ar    1  UNL1        0.0162
     11 C          63.9531   85.1778   12.9038 C.ar    1  UNL1        0.0679
     12 N          63.4166   84.5946   11.6302 N.am    1  UNL1       -0.2518
     13 C          62.7011   85.2914   10.5110 C.2     1  UNL1        0.2493
     14 O          62.2865   84.4210    9.3619 O.2     1  UNL1       -0.2727
     15 C          60.3288   87.8882    9.2174 C.2     1  UNL1        0.2371
     16 O          59.7585   88.2534   10.5559 O.2     1  UNL1       -0.2737
     17 N          61.6223   87.1332    9.1340 N.am    1  UNL1       -0.2959
     18 H          61.9965   86.8935    8.2555 H       1  UNL1        0.1499
     19 C          59.6055   88.2779    7.9624 C.3     1  UNL1        0.1316
     20 C          58.7509   87.2740    7.2468 C.3     1  UNL1        0.0270
     21 C          59.2821   89.9814    6.0276 C.3     1  UNL1        0.0862
     22 N          59.7368   89.6713    7.4230 N.3     1  UNL1       -0.2902
     23 H          59.2074   90.2798    8.0473 H       1  UNL1        0.1237
     24 C          62.8662   90.3504   12.8193 C.3     1  UNL1        0.0856
     25 C          63.7267   91.2137   11.9451 C.3     1  UNL1        0.0091
     26 C          64.8991   91.9424   12.5318 C.3     1  UNL1        0.0005
     27 C          63.4146   91.3484   10.4840 C.3     1  UNL1        0.0005
     28 C          63.6228   83.1196   11.4523 C.3     1  UNL1        0.1248
     29 C          62.8891   82.1485   12.3291 C.ar    1  UNL1       -0.0020
     30 C          63.0225   80.6737   12.0903 C.ar    1  UNL1       -0.0026
     31 C          62.2888   79.7025   12.9671 C.ar    1  UNL1       -0.0003
     32 C          61.4218   80.2063   14.0827 C.ar    1  UNL1       -0.0000
     33 C          61.2884   81.6812   14.3215 C.ar    1  UNL1       -0.0003
     34 C          62.0221   82.6523   13.4447 C.ar    1  UNL1       -0.0026
@<TRIPOS>BOND
     1    21    22    1
     2    22    19    1
     3    19    20    1
     4    19    15    1
     5    15    16    2
     6    15    17   am
     7     1    17    1
     8     1     2    1
     9     2     3    1
    10     3     4   am
    11     4     5    2
    12     4    24    1
    13    24    25    1
    14    25    26    1
    15    25    27    1
    16     3     6    1
    17     6     7   ar
    18     7     8   ar
    19     8     9   ar
    20     9    10   ar
    21    10    11   ar
    22    11    12    1
    23    12    28    1
    24    28    29    1
    25    29    30   ar
    26    30    31   ar
    27    31    32   ar
    28    32    33   ar
    29    33    34   ar
    30    12    13   am
    31    13    14    2
    32    13     1    1
    33    11     6   ar
    34    34    29   ar
    35    22    23    1
    36    17    18    1
@<TRIPOS>MOLECULE
*****
 34 36 0 0 0
SMALL
GASTEIGER

@<TRIPOS>ATOM
      1 C          62.9756   84.5951   11.5213 C.3     1  UNL1        0.1695
      2 C          62.1709   85.2389   10.4312 C.3     1  UNL1        0.1271
      3 N          61.8761   86.6946   10.2217 N.am    1  UNL1       -0.2553
      4 C          61.0328   87.0221    9.0252 C.2     1  UNL1        0.2294
      5 O          60.6794   88.4486    8.7244 O.2     1  UNL1       -0.2745
      6 C          62.3130   87.8662   11.0503 C.ar    1  UNL1        0.0676
      7 C          61.7973   89.1577   10.4883 C.ar    1  UNL1        0.0162
      8 C          62.1212   90.4543   11.1692 C.ar    1  UNL1        0.0014
      9 C          62.9609   90.4594   12.4122 C.ar    1  UNL1        0.0014
     10 C          63.4767   89.1679   12.9741 C.ar    1  UNL1        0.0162
     11 C          63.1527   87.8713   12.2932 C.ar    1  UNL1        0.0679
     12 N          63.7629   86.7061   13.0144 N.am    1  UNL1       -0.2518
     13 C          63.6841   85.2481   12.6710 C.2     1  UNL1        0.2493
     14 O          64.4096   84.3204   13.5999 O.2     1  UNL1       -0.2727
     15 C          62.5030   82.2545   12.5451 C.2     1  UNL1        0.2371
     16 O          61.8089   82.9025   13.7063 O.2     1  UNL1       -0.2737
     17 N          63.0863   83.1008   11.4526 N.am    1  UNL1       -0.2959
     18 H          63.5419   82.6755   10.6905 H       1  UNL1        0.1499
     19 C          62.6138   80.7602   12.4764 C.3     1  UNL1        0.1316
     20 C          62.1260   79.9187   13.6184 C.3     1  UNL1        0.0270
     21 C          62.6447   78.8177   10.7514 C.3     1  UNL1        0.0862
     22 N          63.2123   80.1073   11.2658 N.3     1  UNL1       -0.2902
     23 H          63.1463   80.7826   10.5042 H       1  UNL1        0.1237
     24 C          60.5428   85.9232    8.1294 C.3     1  UNL1        0.0856
     25 C          61.5106   85.1773    7.2593 C.3     1  UNL1        0.0091
     26 C          62.9754   85.1937    7.5815 C.3     1  UNL1        0.0005
     27 C          61.0133   84.4148    6.0670 C.3     1  UNL1        0.0005
     28 C          64.5569   87.0436   14.2415 C.3     1  UNL1        0.1248
     29 C          63.8884   87.0689   15.5841 C.ar    1  UNL1       -0.0020
     30 C          63.5774   88.3803   16.2424 C.ar    1  UNL1       -0.0026
     31 C          62.9089   88.4057   17.5849 C.ar    1  UNL1       -0.0003
     32 C          62.5513   87.1196   18.2691 C.ar    1  UNL1       -0.0000
     33 C          62.8623   85.8081   17.6108 C.ar    1  UNL1       -0.0003
     34 C          63.5308   85.7828   16.2682 C.ar    1  UNL1       -0.0026
@<TRIPOS>BOND
     1    21    22    1
     2    22    19    1
     3    19    20    1
     4    19    15    1
     5    15    16    2
     6    15    17   am
     7     1    17    1
     8     1     2    1
     9     2     3    1
    10     3     4   am
    11     4     5    2
    12     4    24    1
    13    24    25    1
    14    25    26    1
    15    25    27    1
    16     3     6    1
    17     6     7   ar
    18     7     8   ar
    19     8     9   ar
    20     9    10   ar
    21    10    11   ar
    22    11    12    1
    23    12    28    1
    24    28    29    1
    25    29    30   ar
    26    30    31   ar
    27    31    32   ar
    28    32    33   ar
    29    33    34   ar
    30    12    13   am
    31    13    14    2
    32    13     1    1
    33    11     6   ar
    34    34    29   ar
    35    22    23    1
    36    17    18    1
