@<TRIPOS>MOLECULE
*****
 27 30 0 0 0
SMALL
GASTEIGER

@<TRIPOS>ATOM
      1 C          64.3418   89.5902   14.0566 C.ar    1  UNL1        0.2035
      2 N          65.0493   90.4110   13.0195 N.ar    1  UNL1       -0.2133
      3 C          65.3538   91.8554   13.2857 C.ar    1  UNL1        0.1065
      4 C          64.9507   92.4791   14.5891 C.ar    1  UNL1        0.0815
      5 C          64.2431   91.6582   15.6262 C.ar    1  UNL1        0.2646
      6 O          63.8401   92.2818   16.9295 O.2     1  UNL1       -0.2668
      7 N          63.9387   90.2137   15.3599 N.ar    1  UNL1       -0.2667
      8 C          63.2311   89.3929   16.3970 C.3     1  UNL1        0.1363
      9 C          62.7022   88.8187   11.6657 C.3     1  UNL1        0.0233
     10 C          63.2176   87.7600   12.5949 C.3     1  UNL1        0.0953
     11 C          62.9131   86.3155   12.3287 C.3     1  UNL1        0.1106
     12 N          63.4285   85.2568   13.2580 N.pl3   1  UNL1       -0.3041
     13 C          64.2482   85.6425   14.4534 C.3     1  UNL1        0.1123
     14 C          64.5527   87.0869   14.7196 C.3     1  UNL1        0.1149
     15 N          64.0373   88.1457   13.7904 N.pl3   1  UNL1       -0.2777
     16 C          63.1240   83.8123   12.9917 C.ar    1  UNL1        0.0479
     17 C          63.4074   83.2226   11.6419 C.ar    1  UNL1        0.0145
     18 C          63.1029   81.7782   11.3756 C.ar    1  UNL1        0.0013
     19 C          62.5152   80.9234   12.4592 C.ar    1  UNL1        0.0001
     20 C          62.2318   81.5131   13.8090 C.ar    1  UNL1        0.0013
     21 C          62.5363   82.9576   14.0752 C.ar    1  UNL1        0.0145
     22 C          66.0613   92.6763   12.2486 C.ar    1  UNL1        0.1024
     23 C          66.9636   92.0104   11.2525 C.ar    1  UNL1        0.0414
     24 C          67.6712   92.8313   10.2154 C.ar    1  UNL1        0.1023
     25 N          67.4764   94.3180   10.1744 N.ar    1  UNL1       -0.2224
     26 C          66.5740   94.9839   11.1706 C.ar    1  UNL1        0.1989
     27 N          65.8665   94.1631   12.2077 N.ar    1  UNL1       -0.2224
@<TRIPOS>BOND
     1    10     9    1
     2    10    11    1
     3    11    12    1
     4    12    16    1
     5    16    17   ar
     6    17    18   ar
     7    18    19   ar
     8    19    20   ar
     9    20    21   ar
    10    12    13    1
    11    13    14    1
    12    14    15    1
    13    15     1    1
    14     1     2   ar
    15     2     3   ar
    16     3    22    1
    17    22    23   ar
    18    23    24   ar
    19    24    25   ar
    20    25    26   ar
    21    26    27   ar
    22     3     4   ar
    23     4     5   ar
    24     5     6    2
    25     5     7   ar
    26     7     8    1
    27    15    10    1
    28     7     1   ar
    29    21    16   ar
    30    27    22   ar
@<TRIPOS>MOLECULE
*****
 27 30 0 0 0
SMALL
GASTEIGER

@<TRIPOS>ATOM
      1 C          64.0483   88.3809   14.8080 C.ar    1  UNL1        0.2035
      2 N          64.1365   87.0270   14.1683 N.ar    1  UNL1       -0.2133
      3 C          63.6950   85.8097   14.9254 C.ar    1  UNL1        0.1065
      4 C          63.1654   85.9462   16.3222 C.ar    1  UNL1        0.0815
      5 C          63.0773   87.3001   16.9618 C.ar    1  UNL1        0.2646
      6 O          62.5478   87.4367   18.3586 O.2     1  UNL1       -0.2668
      7 N          63.5188   88.5175   16.2047 N.ar    1  UNL1       -0.2667
      8 C          63.4307   89.8714   16.8443 C.3     1  UNL1        0.1363
      9 C          62.5697   89.2304   12.3398 C.3     1  UNL1        0.0233
     10 C          63.7505   90.0230   12.8168 C.3     1  UNL1        0.0953
     11 C          64.1920   91.2403   12.0597 C.3     1  UNL1        0.1106
     12 N          65.3728   92.0329   12.5367 N.pl3   1  UNL1       -0.3041
     13 C          66.1121   91.6082   13.7707 C.3     1  UNL1        0.1123
     14 C          65.6706   90.3909   14.5278 C.3     1  UNL1        0.1149
     15 N          64.4898   89.5983   14.0508 N.pl3   1  UNL1       -0.2777
     16 C          65.8142   93.2503   11.7795 C.ar    1  UNL1        0.0479
     17 C          66.0510   93.1687   10.3006 C.ar    1  UNL1        0.0145
     18 C          66.4924   94.3859    9.5434 C.ar    1  UNL1        0.0013
     19 C          66.6971   95.6849   10.2652 C.ar    1  UNL1        0.0001
     20 C          66.4604   95.7665   11.7441 C.ar    1  UNL1        0.0013
     21 C          66.0189   94.5491   12.5013 C.ar    1  UNL1        0.0145
     22 C          63.7831   84.4558   14.2857 C.ar    1  UNL1        0.1024
     23 C          64.2177   84.3287   12.8557 C.ar    1  UNL1        0.0414
     24 C          64.3058   82.9748   12.2161 C.ar    1  UNL1        0.1023
     25 N          63.9594   81.7479   13.0064 N.ar    1  UNL1       -0.2224
     26 C          63.5248   81.8749   14.4365 C.ar    1  UNL1        0.1989
     27 N          63.4367   83.2288   15.0762 N.ar    1  UNL1       -0.2224
@<TRIPOS>BOND
     1    10     9    1
     2    10    11    1
     3    11    12    1
     4    12    16    1
     5    16    17   ar
     6    17    18   ar
     7    18    19   ar
     8    19    20   ar
     9    20    21   ar
    10    12    13    1
    11    13    14    1
    12    14    15    1
    13    15     1    1
    14     1     2   ar
    15     2     3   ar
    16     3    22    1
    17    22    23   ar
    18    23    24   ar
    19    24    25   ar
    20    25    26   ar
    21    26    27   ar
    22     3     4   ar
    23     4     5   ar
    24     5     6    2
    25     5     7   ar
    26     7     8    1
    27    15    10    1
    28     7     1   ar
    29    21    16   ar
    30    27    22   ar
@<TRIPOS>MOLECULE
*****
 27 30 0 0 0
SMALL
GASTEIGER

@<TRIPOS>ATOM
      1 C          63.4265   88.4854   12.4223 C.ar    1  UNL1        0.2035
      2 N          64.2021   89.2164   13.4778 N.ar    1  UNL1       -0.2133
      3 C          64.4215   90.6954   13.3583 C.ar    1  UNL1        0.1065
      4 C          63.8653   91.4435   12.1831 C.ar    1  UNL1        0.0815
      5 C          63.0897   90.7126   11.1275 C.ar    1  UNL1        0.2646
      6 O          62.5336   91.4607    9.9524 O.2     1  UNL1       -0.2668
      7 N          62.8703   89.2335   11.2472 N.ar    1  UNL1       -0.2667
      8 C          62.0947   88.5026   10.1916 C.3     1  UNL1        0.1363
      9 C          64.4909   86.9985   14.8006 C.3     1  UNL1        0.0233
     10 C          63.7393   86.2629   13.7310 C.3     1  UNL1        0.0953
     11 C          63.5199   84.7839   13.8505 C.3     1  UNL1        0.1106
     12 N          62.7683   84.0483   12.7810 N.pl3   1  UNL1       -0.3041
     13 C          62.2361   84.7917   11.5919 C.3     1  UNL1        0.1123
     14 C          62.4555   86.2708   11.4723 C.3     1  UNL1        0.1149
     15 N          63.2071   87.0064   12.5419 N.pl3   1  UNL1       -0.2777
     16 C          62.5489   82.5692   12.9006 C.ar    1  UNL1        0.0479
     17 C          61.8745   82.0070   14.1168 C.ar    1  UNL1        0.0145
     18 C          61.6550   80.5280   14.2364 C.ar    1  UNL1        0.0013
     19 C          62.1101   79.6111   13.1398 C.ar    1  UNL1        0.0001
     20 C          62.7845   80.1734   11.9237 C.ar    1  UNL1        0.0013
     21 C          63.0039   81.6525   11.8041 C.ar    1  UNL1        0.0145
     22 C          65.1971   91.4263   14.4139 C.ar    1  UNL1        0.1024
     23 C          66.6491   91.7353   14.1988 C.ar    1  UNL1        0.0414
     24 C          67.4247   92.4662   15.2544 C.ar    1  UNL1        0.1023
     25 N          66.7483   92.8881   16.5250 N.ar    1  UNL1       -0.2224
     26 C          65.2963   92.5791   16.7401 C.ar    1  UNL1        0.1989
     27 N          64.5207   91.8482   15.6845 N.ar    1  UNL1       -0.2224
@<TRIPOS>BOND
     1    10     9    1
     2    10    11    1
     3    11    12    1
     4    12    16    1
     5    16    17   ar
     6    17    18   ar
     7    18    19   ar
     8    19    20   ar
     9    20    21   ar
    10    12    13    1
    11    13    14    1
    12    14    15    1
    13    15     1    1
    14     1     2   ar
    15     2     3   ar
    16     3    22    1
    17    22    23   ar
    18    23    24   ar
    19    24    25   ar
    20    25    26   ar
    21    26    27   ar
    22     3     4   ar
    23     4     5   ar
    24     5     6    2
    25     5     7   ar
    26     7     8    1
    27    15    10    1
    28     7     1   ar
    29    21    16   ar
    30    27    22   ar
@<TRIPOS>MOLECULE
*****
 27 30 0 0 0
SMALL
GASTEIGER

@<TRIPOS>ATOM
      1 C          63.8182   88.3717   14.0500 C.ar    1  UNL1        0.2035
      2 N          64.2648   89.4312   13.0866 N.ar    1  UNL1       -0.2133
      3 C          64.4334   90.8466   13.5536 C.ar    1  UNL1        0.1065
      4 C          64.1554   91.2026   14.9840 C.ar    1  UNL1        0.0815
      5 C          63.7088   90.1431   15.9474 C.ar    1  UNL1        0.2646
      6 O          63.4308   90.4990   17.3778 O.2     1  UNL1       -0.2668
      7 N          63.5402   88.7276   15.4803 N.ar    1  UNL1       -0.2667
      8 C          63.0937   87.6681   16.4437 C.3     1  UNL1        0.1363
      9 C          62.2750   87.7929   11.5432 C.3     1  UNL1        0.0233
     10 C          62.8780   86.6668   12.3296 C.3     1  UNL1        0.0953
     11 C          62.7095   85.2514   11.8626 C.3     1  UNL1        0.1106
     12 N          63.3126   84.1254   12.6489 N.pl3   1  UNL1       -0.3041
     13 C          64.0841   84.4147   13.9022 C.3     1  UNL1        0.1123
     14 C          64.2527   85.8301   14.3692 C.3     1  UNL1        0.1149
     15 N          63.6496   86.9562   13.5829 N.pl3   1  UNL1       -0.2777
     16 C          63.1440   82.7099   12.1819 C.ar    1  UNL1        0.0479
     17 C          62.7099   81.6479   13.1482 C.ar    1  UNL1        0.0145
     18 C          62.5413   80.2325   12.6812 C.ar    1  UNL1        0.0013
     19 C          62.8068   79.8790   11.2478 C.ar    1  UNL1        0.0001
     20 C          63.2409   80.9409   10.2814 C.ar    1  UNL1        0.0013
     21 C          63.4094   82.3564   10.7485 C.ar    1  UNL1        0.0145
     22 C          64.8799   91.9061   12.5902 C.ar    1  UNL1        0.1024
     23 C          64.4759   91.8266   11.1478 C.ar    1  UNL1        0.0414
     24 C          64.9225   92.8861   10.1845 C.ar    1  UNL1        0.1023
     25 N          65.7730   94.0250   10.6635 N.ar    1  UNL1       -0.2224
     26 C          66.1770   94.1045   12.1059 C.ar    1  UNL1        0.1989
     27 N          65.7305   93.0450   13.0693 N.ar    1  UNL1       -0.2224
@<TRIPOS>BOND
     1    10     9    1
     2    10    11    1
     3    11    12    1
     4    12    16    1
     5    16    17   ar
     6    17    18   ar
     7    18    19   ar
     8    19    20   ar
     9    20    21   ar
    10    12    13    1
    11    13    14    1
    12    14    15    1
    13    15     1    1
    14     1     2   ar
    15     2     3   ar
    16     3    22    1
    17    22    23   ar
    18    23    24   ar
    19    24    25   ar
    20    25    26   ar
    21    26    27   ar
    22     3     4   ar
    23     4     5   ar
    24     5     6    2
    25     5     7   ar
    26     7     8    1
    27    15    10    1
    28     7     1   ar
    29    21    16   ar
    30    27    22   ar
@<TRIPOS>MOLECULE
*****
 27 30 0 0 0
SMALL
GASTEIGER

@<TRIPOS>ATOM
      1 C          62.3230   88.2165   11.5968 C.ar    1  UNL1        0.2035
      2 N          63.5176   89.0445   11.9675 N.ar    1  UNL1       -0.2133
      3 C          63.4325   90.5416   11.9325 C.ar    1  UNL1        0.1065
      4 C          62.1528   91.2109   11.5266 C.ar    1  UNL1        0.0815
      5 C          60.9583   90.3829   11.1558 C.ar    1  UNL1        0.2646
      6 O          59.6786   91.0520   10.7500 O.2     1  UNL1       -0.2668
      7 N          61.0434   88.8857   11.1909 N.ar    1  UNL1       -0.2667
      8 C          59.8488   88.0577   10.8202 C.3     1  UNL1        0.1363
      9 C          62.3186   86.6533    9.0362 C.3     1  UNL1        0.0233
     10 C          62.4060   85.9377   10.3516 C.3     1  UNL1        0.0953
     11 C          62.4911   84.4406   10.3868 C.3     1  UNL1        0.1106
     12 N          62.5784   83.7250   11.7022 N.pl3   1  UNL1       -0.3041
     13 C          62.5806   84.5066   12.9824 C.3     1  UNL1        0.1123
     14 C          62.4954   86.0037   12.9473 C.3     1  UNL1        0.1149
     15 N          62.4081   86.7193   11.6319 N.pl3   1  UNL1       -0.2777
     16 C          62.6635   82.2278   11.7373 C.ar    1  UNL1        0.0479
     17 C          62.3290   81.4869   12.9979 C.ar    1  UNL1        0.0145
     18 C          62.4141   79.9898   13.0330 C.ar    1  UNL1        0.0013
     19 C          62.8337   79.2334   11.8075 C.ar    1  UNL1        0.0001
     20 C          63.1683   79.9743   10.5469 C.ar    1  UNL1        0.0013
     21 C          63.0831   81.4715   10.5118 C.ar    1  UNL1        0.0145
     22 C          64.6271   91.3696   12.3032 C.ar    1  UNL1        0.1024
     23 C          65.2030   92.3400   11.3150 C.ar    1  UNL1        0.0414
     24 C          66.3975   93.1680   11.6857 C.ar    1  UNL1        0.1023
     25 N          67.0162   93.0256   13.0447 N.ar    1  UNL1       -0.2224
     26 C          66.4403   92.0552   14.0331 C.ar    1  UNL1        0.1989
     27 N          65.2457   91.2272   13.6623 N.ar    1  UNL1       -0.2224
@<TRIPOS>BOND
     1    10     9    1
     2    10    11    1
     3    11    12    1
     4    12    16    1
     5    16    17   ar
     6    17    18   ar
     7    18    19   ar
     8    19    20   ar
     9    20    21   ar
    10    12    13    1
    11    13    14    1
    12    14    15    1
    13    15     1    1
    14     1     2   ar
    15     2     3   ar
    16     3    22    1
    17    22    23   ar
    18    23    24   ar
    19    24    25   ar
    20    25    26   ar
    21    26    27   ar
    22     3     4   ar
    23     4     5   ar
    24     5     6    2
    25     5     7   ar
    26     7     8    1
    27    15    10    1
    28     7     1   ar
    29    21    16   ar
    30    27    22   ar
@<TRIPOS>MOLECULE
*****
 27 30 0 0 0
SMALL
GASTEIGER

@<TRIPOS>ATOM
      1 C          63.5703   86.7986   14.3105 C.ar    1  UNL1        0.2035
      2 N          63.9591   87.9762   13.4667 N.ar    1  UNL1       -0.2133
      3 C          64.0969   89.3332   14.0908 C.ar    1  UNL1        0.1065
      4 C          63.8458   89.5127   15.5587 C.ar    1  UNL1        0.0815
      5 C          63.4570   88.3351   16.4026 C.ar    1  UNL1        0.2646
      6 O          63.2060   88.5144   17.8704 O.2     1  UNL1       -0.2668
      7 N          63.3193   86.9780   15.7784 N.ar    1  UNL1       -0.2667
      8 C          62.9305   85.8004   16.6222 C.3     1  UNL1        0.1363
      9 C          62.3122   86.5139   11.6020 C.3     1  UNL1        0.0233
     10 C          62.8035   85.2992   12.3321 C.3     1  UNL1        0.0953
     11 C          62.6658   83.9422   11.7081 C.3     1  UNL1        0.1106
     12 N          63.1571   82.7275   12.4383 N.pl3   1  UNL1       -0.3041
     13 C          63.7862   82.8698   13.7925 C.3     1  UNL1        0.1123
     14 C          63.9239   84.2268   14.4166 C.3     1  UNL1        0.1149
     15 N          63.4326   85.4415   13.6864 N.pl3   1  UNL1       -0.2777
     16 C          63.0194   81.3704   11.8141 C.ar    1  UNL1        0.0479
     17 C          62.6661   80.1863   12.6644 C.ar    1  UNL1        0.0145
     18 C          62.5283   78.8293   12.0403 C.ar    1  UNL1        0.0013
     19 C          62.7439   78.6564   10.5659 C.ar    1  UNL1        0.0001
     20 C          63.0972   79.8405    9.7157 C.ar    1  UNL1        0.0013
     21 C          63.2350   81.1976   10.3398 C.ar    1  UNL1        0.0145
     22 C          64.4857   90.5109   13.2469 C.ar    1  UNL1        0.1024
     23 C          63.8179   90.7381   11.9232 C.ar    1  UNL1        0.0414
     24 C          64.2067   91.9157   11.0793 C.ar    1  UNL1        0.1023
     25 N          65.2632   92.8661   11.5593 N.ar    1  UNL1       -0.2224
     26 C          65.9311   92.6389   12.8831 C.ar    1  UNL1        0.1989
     27 N          65.5423   91.4613   13.7269 N.ar    1  UNL1       -0.2224
@<TRIPOS>BOND
     1    10     9    1
     2    10    11    1
     3    11    12    1
     4    12    16    1
     5    16    17   ar
     6    17    18   ar
     7    18    19   ar
     8    19    20   ar
     9    20    21   ar
    10    12    13    1
    11    13    14    1
    12    14    15    1
    13    15     1    1
    14     1     2   ar
    15     2     3   ar
    16     3    22    1
    17    22    23   ar
    18    23    24   ar
    19    24    25   ar
    20    25    26   ar
    21    26    27   ar
    22     3     4   ar
    23     4     5   ar
    24     5     6    2
    25     5     7   ar
    26     7     8    1
    27    15    10    1
    28     7     1   ar
    29    21    16   ar
    30    27    22   ar
@<TRIPOS>MOLECULE
*****
 27 30 0 0 0
SMALL
GASTEIGER

@<TRIPOS>ATOM
      1 C          62.8996   88.3058   12.1891 C.ar    1  UNL1        0.2035
      2 N          63.2184   86.8405   12.2227 N.ar    1  UNL1       -0.2133
      3 C          62.2736   85.8531   11.6043 C.ar    1  UNL1        0.1065
      4 C          61.0101   86.3310   10.9522 C.ar    1  UNL1        0.0815
      5 C          60.6913   87.7964   10.9186 C.ar    1  UNL1        0.2646
      6 O          59.4278   88.2743   10.2667 O.2     1  UNL1       -0.2668
      7 N          61.6361   88.7838   11.5371 N.ar    1  UNL1       -0.2667
      8 C          61.3174   90.2491   11.5035 C.3     1  UNL1        0.1363
      9 C          64.1803   87.7026   14.8341 C.3     1  UNL1        0.0233
     10 C          64.4848   88.9916   14.1300 C.3     1  UNL1        0.0953
     11 C          65.4295   89.9790   14.7483 C.3     1  UNL1        0.1106
     12 N          65.7340   91.2680   14.0442 N.pl3   1  UNL1       -0.3041
     13 C          65.0936   91.5697   12.7218 C.3     1  UNL1        0.1123
     14 C          64.1489   90.5823   12.1034 C.3     1  UNL1        0.1149
     15 N          63.8444   89.2933   12.8075 N.pl3   1  UNL1       -0.2777
     16 C          66.6788   92.2555   14.6627 C.ar    1  UNL1        0.0479
     17 C          67.7040   91.7924   15.6548 C.ar    1  UNL1        0.0145
     18 C          68.6488   92.7797   16.2733 C.ar    1  UNL1        0.0013
     19 C          68.5684   94.2302   15.8996 C.ar    1  UNL1        0.0001
     20 C          67.5431   94.6933   14.9074 C.ar    1  UNL1        0.0013
     21 C          66.5983   93.7059   14.2889 C.ar    1  UNL1        0.0145
     22 C          62.5924   84.3877   11.6378 C.ar    1  UNL1        0.1024
     23 C          63.2196   83.7291   10.4451 C.ar    1  UNL1        0.0414
     24 C          63.5384   82.2637   10.4787 C.ar    1  UNL1        0.1023
     25 N          63.2298   81.4570   11.7050 N.ar    1  UNL1       -0.2224
     26 C          62.6025   82.1156   12.8979 C.ar    1  UNL1        0.1989
     27 N          62.2838   83.5810   12.8643 N.ar    1  UNL1       -0.2224
@<TRIPOS>BOND
     1    10     9    1
     2    10    11    1
     3    11    12    1
     4    12    16    1
     5    16    17   ar
     6    17    18   ar
     7    18    19   ar
     8    19    20   ar
     9    20    21   ar
    10    12    13    1
    11    13    14    1
    12    14    15    1
    13    15     1    1
    14     1     2   ar
    15     2     3   ar
    16     3    22    1
    17    22    23   ar
    18    23    24   ar
    19    24    25   ar
    20    25    26   ar
    21    26    27   ar
    22     3     4   ar
    23     4     5   ar
    24     5     6    2
    25     5     7   ar
    26     7     8    1
    27    15    10    1
    28     7     1   ar
    29    21    16   ar
    30    27    22   ar
@<TRIPOS>MOLECULE
*****
 27 30 0 0 0
SMALL
GASTEIGER

@<TRIPOS>ATOM
      1 C          62.1108   88.9665   11.5771 C.ar    1  UNL1        0.2035
      2 N          62.4012   88.0036   10.4642 N.ar    1  UNL1       -0.2133
      3 C          61.2751   87.2907    9.7761 C.ar    1  UNL1        0.1065
      4 C          59.8583   87.5406   10.2010 C.ar    1  UNL1        0.0815
      5 C          59.5678   88.5035   11.3139 C.ar    1  UNL1        0.2646
      6 O          58.1512   88.7534   11.7388 O.2     1  UNL1       -0.2668
      7 N          60.6941   89.2164   12.0020 N.ar    1  UNL1       -0.2667
      8 C          60.4036   90.1792   13.1149 C.3     1  UNL1        0.1363
      9 C          63.2758   91.4514   10.3656 C.3     1  UNL1        0.0233
     10 C          63.8195   90.9218   11.6594 C.3     1  UNL1        0.0953
     11 C          64.9458   91.6347   12.3474 C.3     1  UNL1        0.1106
     12 N          65.4895   91.1051   13.6412 N.pl3   1  UNL1       -0.3041
     13 C          64.9070   89.8626   14.2469 C.3     1  UNL1        0.1123
     14 C          63.7808   89.1498   13.5589 C.3     1  UNL1        0.1149
     15 N          63.2371   89.6794   12.2651 N.pl3   1  UNL1       -0.2777
     16 C          66.6158   91.8180   14.3292 C.ar    1  UNL1        0.0479
     17 C          67.9772   91.8521   13.7004 C.ar    1  UNL1        0.0145
     18 C          69.1034   92.5650   14.3884 C.ar    1  UNL1        0.0013
     19 C          68.8683   93.2438   15.7052 C.ar    1  UNL1        0.0001
     20 C          67.5069   93.2097   16.3340 C.ar    1  UNL1        0.0013
     21 C          66.3806   92.4968   15.6460 C.ar    1  UNL1        0.0145
     22 C          61.5655   86.3279    8.6632 C.ar    1  UNL1        0.1024
     23 C          62.9132   85.6762    8.5679 C.ar    1  UNL1        0.0414
     24 C          63.2036   84.7133    7.4550 C.ar    1  UNL1        0.1023
     25 N          62.1465   84.4022    6.4374 N.ar    1  UNL1       -0.2224
     26 C          60.7988   85.0540    6.5326 C.ar    1  UNL1        0.1989
     27 N          60.5083   86.0168    7.6456 N.ar    1  UNL1       -0.2224
@<TRIPOS>BOND
     1    10     9    1
     2    10    11    1
     3    11    12    1
     4    12    16    1
     5    16    17   ar
     6    17    18   ar
     7    18    19   ar
     8    19    20   ar
     9    20    21   ar
    10    12    13    1
    11    13    14    1
    12    14    15    1
    13    15     1    1
    14     1     2   ar
    15     2     3   ar
    16     3    22    1
    17    22    23   ar
    18    23    24   ar
    19    24    25   ar
    20    25    26   ar
    21    26    27   ar
    22     3     4   ar
    23     4     5   ar
    24     5     6    2
    25     5     7   ar
    26     7     8    1
    27    15    10    1
    28     7     1   ar
    29    21    16   ar
    30    27    22   ar
@<TRIPOS>MOLECULE
*****
 27 30 0 0 0
SMALL
GASTEIGER

@<TRIPOS>ATOM
      1 C          72.6808   77.4808   13.9491 C.ar    1  UNL1        0.2035
      2 N          72.4850   78.0145   12.5610 N.ar    1  UNL1       -0.2133
      3 C          72.6716   79.4773   12.2866 C.ar    1  UNL1        0.1065
      4 C          73.0539   80.4066   13.4004 C.ar    1  UNL1        0.0815
      5 C          73.2496   79.8729   14.7885 C.ar    1  UNL1        0.2646
      6 O          73.6319   80.8020   15.9023 O.2     1  UNL1       -0.2668
      7 N          73.0630   78.4100   15.0629 N.ar    1  UNL1       -0.2667
      8 C          73.2587   77.8763   16.4510 C.3     1  UNL1        0.1363
      9 C          70.0332   76.4637   14.9269 C.3     1  UNL1        0.0233
     10 C          71.1704   75.5094   14.7123 C.3     1  UNL1        0.0953
     11 C          70.9839   74.0466   14.9866 C.3     1  UNL1        0.1106
     12 N          72.1211   73.0923   14.7720 N.pl3   1  UNL1       -0.3041
     13 C          73.4449   73.6008   14.2831 C.3     1  UNL1        0.1123
     14 C          73.6314   75.0636   14.0088 C.3     1  UNL1        0.1149
     15 N          72.4942   76.0179   14.2234 N.pl3   1  UNL1       -0.2777
     16 C          71.9345   71.6294   15.0463 C.ar    1  UNL1        0.0479
     17 C          72.0620   70.6349   13.9306 C.ar    1  UNL1        0.0145
     18 C          71.8754   69.1721   14.2049 C.ar    1  UNL1        0.0013
     19 C          71.5614   68.7036   15.5949 C.ar    1  UNL1        0.0001
     20 C          71.4340   69.6981   16.7106 C.ar    1  UNL1        0.0013
     21 C          71.6206   71.1610   16.4363 C.ar    1  UNL1        0.0145
     22 C          72.4759   80.0110   10.8985 C.ar    1  UNL1        0.1024
     23 C          72.6098   79.0961    9.7174 C.ar    1  UNL1        0.0414
     24 C          72.4141   79.6298    8.3293 C.ar    1  UNL1        0.1023
     25 N          72.0845   81.0784    8.1223 N.ar    1  UNL1       -0.2224
     26 C          71.9505   81.9934    9.3034 C.ar    1  UNL1        0.1989
     27 N          72.1462   81.4597   10.6915 N.ar    1  UNL1       -0.2224
@<TRIPOS>BOND
     1    10     9    1
     2    10    11    1
     3    11    12    1
     4    12    16    1
     5    16    17   ar
     6    17    18   ar
     7    18    19   ar
     8    19    20   ar
     9    20    21   ar
    10    12    13    1
    11    13    14    1
    12    14    15    1
    13    15     1    1
    14     1     2   ar
    15     2     3   ar
    16     3    22    1
    17    22    23   ar
    18    23    24   ar
    19    24    25   ar
    20    25    26   ar
    21    26    27   ar
    22     3     4   ar
    23     4     5   ar
    24     5     6    2
    25     5     7   ar
    26     7     8    1
    27    15    10    1
    28     7     1   ar
    29    21    16   ar
    30    27    22   ar
