@<TRIPOS>MOLECULE
*****
 27 30 0 0 0
SMALL
GASTEIGER

@<TRIPOS>ATOM
      1 O          62.4590   85.9449   10.9600 O.2     1  UNL1       -0.2896
      2 C          63.0528   85.3450   12.1999 C.2     1  UNL1        0.1899
      3 C          63.2081   83.8803   12.4836 C.ar    1  UNL1        0.0493
      4 C          62.8505   82.6603   11.6875 C.ar    1  UNL1        0.0080
      5 C          63.1316   81.2947   12.2408 C.ar    1  UNL1        0.0716
      6 C          63.7703   81.1490   13.5901 C.ar    1  UNL1        0.0051
      7 C          64.1280   82.3690   14.3862 C.ar    1  UNL1        0.0143
      8 C          63.8469   83.7346   13.8330 C.ar    1  UNL1        0.0476
      9 N          64.0864   85.1094   14.3833 N.pl3   1  UNL1       -0.3294
     10 C          63.5956   86.1047   13.3741 C.3     1  UNL1        0.1128
     11 C          64.1709   86.7249   14.6127 C.3     1  UNL1        0.0428
     12 C          64.2151   88.2176   14.7529 C.3     1  UNL1        0.0742
     13 N          63.6840   89.0902   13.6544 N.3     1  UNL1       -0.2725
     14 C          63.1088   88.4699   12.4157 C.3     1  UNL1        0.0742
     15 C          63.0645   86.9772   12.2756 C.3     1  UNL1        0.0428
     16 H          64.4940   85.3212   15.2540 H       1  UNL1        0.1471
     17 C          62.7739   80.0747   11.4447 C.3     1  UNL1        0.4186
     18 F          62.4162   78.8548   10.6486 F       1  UNL1       -0.1659
     19 F          63.1559   80.7872   10.1812 F       1  UNL1       -0.1659
     20 F          62.3919   79.3622   12.7082 F       1  UNL1       -0.1659
     21 C          63.7283   90.5830   13.7946 C.3     1  UNL1        0.0722
     22 C          64.9588   91.3383   13.3882 C.3     1  UNL1        0.0210
     23 C          64.9896   92.0746   12.0818 C.3     1  UNL1        0.0335
     24 C          66.2202   92.8300   11.6754 C.3     1  UNL1        0.1422
     25 O          67.4200   92.8490   12.5755 O.3     1  UNL1       -0.3538
     26 C          67.3892   92.1127   13.8820 C.3     1  UNL1        0.1422
     27 C          66.1586   91.3574   14.2883 C.3     1  UNL1        0.0335
@<TRIPOS>BOND
     1     1     2    2
     2     2     3    1
     3     3     4   ar
     4     4     5   ar
     5     5    17    1
     6    17    18    1
     7    17    19    1
     8    17    20    1
     9     5     6   ar
    10     6     7   ar
    11     7     8   ar
    12     8     9    1
    13     9    10    1
    14    10    11    1
    15    11    12    1
    16    12    13    1
    17    13    21    1
    18    21    22    1
    19    22    23    1
    20    23    24    1
    21    24    25    1
    22    25    26    1
    23    26    27    1
    24    13    14    1
    25    14    15    1
    26    10     2    1
    27    27    22    1
    28     8     3   ar
    29    15    10    1
    30     9    16    1
@<TRIPOS>MOLECULE
*****
 27 30 0 0 0
SMALL
GASTEIGER

@<TRIPOS>ATOM
      1 O          64.0239   88.8050   13.9898 O.2     1  UNL1       -0.2896
      2 C          64.1900   90.0097   13.1118 C.2     1  UNL1        0.1899
      3 C          65.0828   91.1837   13.3852 C.ar    1  UNL1        0.0493
      4 C          66.0098   91.4963   14.5222 C.ar    1  UNL1        0.0080
      5 C          66.7909   92.7770   14.5226 C.ar    1  UNL1        0.0716
      6 C          66.6450   93.7448   13.3860 C.ar    1  UNL1        0.0051
      7 C          65.7181   93.4321   12.2490 C.ar    1  UNL1        0.0143
      8 C          64.9369   92.1516   12.2485 C.ar    1  UNL1        0.0476
      9 N          63.9539   91.5758   11.2726 N.pl3   1  UNL1       -0.3294
     10 C          63.4923   90.2521   11.8061 C.3     1  UNL1        0.1128
     11 C          62.8729   90.6304   10.4934 C.3     1  UNL1        0.0428
     12 C          61.8867   89.7105    9.8367 C.3     1  UNL1        0.0742
     13 N          61.5200   88.4124   10.4927 N.3     1  UNL1       -0.2725
     14 C          62.1394   88.0341   11.8054 C.3     1  UNL1        0.0742
     15 C          63.1255   88.9539   12.4621 C.3     1  UNL1        0.0428
     16 H          63.6629   91.9934   10.4299 H       1  UNL1        0.1471
     17 C          67.7179   93.0896   15.6597 C.3     1  UNL1        0.4186
     18 F          68.6449   93.4023   16.7968 F       1  UNL1       -0.1659
     19 F          66.5656   93.0219   16.6177 F       1  UNL1       -0.1659
     20 F          68.8701   93.1574   14.7017 F       1  UNL1       -0.1659
     21 C          60.5338   87.4925    9.8359 C.3     1  UNL1        0.0722
     22 C          60.9957   86.5199    8.7915 C.3     1  UNL1        0.0210
     23 C          62.4053   86.0078    8.8147 C.3     1  UNL1        0.0335
     24 C          62.8672   85.0352    7.7702 C.3     1  UNL1        0.1422
     25 O          61.9194   84.5748    6.7027 O.3     1  UNL1       -0.3538
     26 C          60.5098   85.0869    6.6796 C.3     1  UNL1        0.1422
     27 C          60.0479   86.0594    7.7239 C.3     1  UNL1        0.0335
@<TRIPOS>BOND
     1     1     2    2
     2     2     3    1
     3     3     4   ar
     4     4     5   ar
     5     5    17    1
     6    17    18    1
     7    17    19    1
     8    17    20    1
     9     5     6   ar
    10     6     7   ar
    11     7     8   ar
    12     8     9    1
    13     9    10    1
    14    10    11    1
    15    11    12    1
    16    12    13    1
    17    13    21    1
    18    21    22    1
    19    22    23    1
    20    23    24    1
    21    24    25    1
    22    25    26    1
    23    26    27    1
    24    13    14    1
    25    14    15    1
    26    10     2    1
    27    27    22    1
    28     8     3   ar
    29    15    10    1
    30     9    16    1
@<TRIPOS>MOLECULE
*****
 27 30 0 0 0
SMALL
GASTEIGER

@<TRIPOS>ATOM
      1 O          62.4943   91.2019   10.8587 O.2     1  UNL1       -0.2896
      2 C          62.6071   89.7799   11.3224 C.2     1  UNL1        0.1899
      3 C          62.0075   88.5821   10.6473 C.ar    1  UNL1        0.0493
      4 C          61.1788   88.4402    9.4050 C.ar    1  UNL1        0.0080
      5 C          60.7118   87.0840    8.9659 C.ar    1  UNL1        0.0716
      6 C          61.0736   85.8699    9.7689 C.ar    1  UNL1        0.0051
      7 C          61.9022   86.0118   11.0112 C.ar    1  UNL1        0.0143
      8 C          62.3692   87.3679   11.4504 C.ar    1  UNL1        0.0476
      9 N          63.1924   87.8153   12.6218 N.pl3   1  UNL1       -0.3294
     10 C          63.3395   89.3060   12.5428 C.3     1  UNL1        0.1128
     11 C          64.0267   88.6869   13.7236 C.3     1  UNL1        0.0428
     12 C          64.7747   89.5518   14.6943 C.3     1  UNL1        0.0742
     13 N          64.8355   91.0358   14.4843 N.3     1  UNL1       -0.2725
     14 C          64.1482   91.6548   13.3034 C.3     1  UNL1        0.0742
     15 C          63.4002   90.7900   12.3327 C.3     1  UNL1        0.0428
     16 H          63.5699   87.2328   13.3200 H       1  UNL1        0.1471
     17 C          59.8832   86.9421    7.7236 C.3     1  UNL1        0.4186
     18 F          59.0545   86.8002    6.4814 F       1  UNL1       -0.1659
     19 F          59.7176   88.4317    7.6639 F       1  UNL1       -0.1659
     20 F          60.0488   85.4525    7.7833 F       1  UNL1       -0.1659
     21 C          65.5835   91.9007   15.4551 C.3     1  UNL1        0.0722
     22 C          67.0056   92.2864   15.1745 C.3     1  UNL1        0.0210
     23 C          67.7115   91.7278   13.9746 C.3     1  UNL1        0.0335
     24 C          69.1337   92.1136   13.6940 C.3     1  UNL1        0.1422
     25 O          69.8500   93.0578   14.6134 O.3     1  UNL1       -0.3538
     26 C          69.1442   93.6163   15.8134 C.3     1  UNL1        0.1422
     27 C          67.7220   93.2306   16.0939 C.3     1  UNL1        0.0335
@<TRIPOS>BOND
     1     1     2    2
     2     2     3    1
     3     3     4   ar
     4     4     5   ar
     5     5    17    1
     6    17    18    1
     7    17    19    1
     8    17    20    1
     9     5     6   ar
    10     6     7   ar
    11     7     8   ar
    12     8     9    1
    13     9    10    1
    14    10    11    1
    15    11    12    1
    16    12    13    1
    17    13    21    1
    18    21    22    1
    19    22    23    1
    20    23    24    1
    21    24    25    1
    22    25    26    1
    23    26    27    1
    24    13    14    1
    25    14    15    1
    26    10     2    1
    27    27    22    1
    28     8     3   ar
    29    15    10    1
    30     9    16    1
@<TRIPOS>MOLECULE
*****
 27 30 0 0 0
SMALL
GASTEIGER

@<TRIPOS>ATOM
      1 O          65.3608   92.1547   10.7295 O.2     1  UNL1       -0.2896
      2 C          64.9017   91.7950   12.1114 C.2     1  UNL1        0.1899
      3 C          65.6452   92.0653   13.3858 C.ar    1  UNL1        0.0493
      4 C          66.9658   92.7228   13.6573 C.ar    1  UNL1        0.0080
      5 C          67.4627   92.8539   15.0666 C.ar    1  UNL1        0.0716
      6 C          66.6389   92.3276   16.2043 C.ar    1  UNL1        0.0051
      7 C          65.3183   91.6702   15.9328 C.ar    1  UNL1        0.0143
      8 C          64.8214   91.5391   14.5236 C.ar    1  UNL1        0.0476
      9 N          63.5688   90.9434   13.9523 N.pl3   1  UNL1       -0.3294
     10 C          63.6184   91.1015   12.4615 C.3     1  UNL1        0.1128
     11 C          62.3804   90.4182   12.9616 C.3     1  UNL1        0.0428
     12 C          61.3311   89.9629   11.9913 C.3     1  UNL1        0.0742
     13 N          61.5198   90.1910   10.5208 N.3     1  UNL1       -0.2725
     14 C          62.7578   90.8744   10.0206 C.3     1  UNL1        0.0742
     15 C          63.8071   91.3297   10.9910 C.3     1  UNL1        0.0428
     16 H          62.8418   90.5226   14.4657 H       1  UNL1        0.1471
     17 C          68.7833   93.5113   15.3380 C.3     1  UNL1        0.4186
     18 F          70.1040   94.1688   15.6095 F       1  UNL1       -0.1659
     19 F          69.4668   92.4967   14.4701 F       1  UNL1       -0.1659
     20 F          68.0998   94.5259   16.2060 F       1  UNL1       -0.1659
     21 C          60.4704   89.7357    9.5504 C.3     1  UNL1        0.0722
     22 C          60.5190   88.3448    8.9911 C.3     1  UNL1        0.0210
     23 C          59.4126   87.8534    8.1054 C.3     1  UNL1        0.0335
     24 C          59.4613   86.4624    7.5460 C.3     1  UNL1        0.1422
     25 O          60.6163   85.5628    7.8725 O.3     1  UNL1       -0.3538
     26 C          61.7227   86.0541    8.7582 C.3     1  UNL1        0.1422
     27 C          61.6741   87.4451    9.3175 C.3     1  UNL1        0.0335
@<TRIPOS>BOND
     1     1     2    2
     2     2     3    1
     3     3     4   ar
     4     4     5   ar
     5     5    17    1
     6    17    18    1
     7    17    19    1
     8    17    20    1
     9     5     6   ar
    10     6     7   ar
    11     7     8   ar
    12     8     9    1
    13     9    10    1
    14    10    11    1
    15    11    12    1
    16    12    13    1
    17    13    21    1
    18    21    22    1
    19    22    23    1
    20    23    24    1
    21    24    25    1
    22    25    26    1
    23    26    27    1
    24    13    14    1
    25    14    15    1
    26    10     2    1
    27    27    22    1
    28     8     3   ar
    29    15    10    1
    30     9    16    1
@<TRIPOS>MOLECULE
*****
 27 30 0 0 0
SMALL
GASTEIGER

@<TRIPOS>ATOM
      1 O          61.7358   89.4008   11.0209 O.2     1  UNL1       -0.2896
      2 C          61.6489   87.9410   10.6870 C.2     1  UNL1        0.1899
      3 C          62.3022   86.8229   11.4440 C.ar    1  UNL1        0.0493
      4 C          63.1719   86.8120   12.6660 C.ar    1  UNL1        0.0080
      5 C          63.6899   85.5120   13.2063 C.ar    1  UNL1        0.0716
      6 C          63.3381   84.2231   12.5246 C.ar    1  UNL1        0.0051
      7 C          62.4684   84.2340   11.3025 C.ar    1  UNL1        0.0143
      8 C          61.9504   85.5339   10.7622 C.ar    1  UNL1        0.0476
      9 N          61.0796   85.8554    9.5838 N.pl3   1  UNL1       -0.3294
     10 C          60.8933   87.3431    9.5373 C.3     1  UNL1        0.1128
     11 C          60.1880   86.6052    8.4382 C.3     1  UNL1        0.0428
     12 C          59.3868   87.3620    7.4207 C.3     1  UNL1        0.0742
     13 N          59.2909   88.8567    7.5024 N.3     1  UNL1       -0.2725
     14 C          59.9961   89.5946    8.6015 C.3     1  UNL1        0.0742
     15 C          60.7973   88.8378    9.6190 C.3     1  UNL1        0.0428
     16 H          60.6975   85.2043    8.9519 H       1  UNL1        0.1471
     17 C          64.5597   85.5011   14.4284 C.3     1  UNL1        0.4186
     18 F          65.4295   85.4902   15.6504 F       1  UNL1       -0.1659
     19 F          64.5883   84.0018   14.3946 F       1  UNL1       -0.1659
     20 F          64.5310   87.0004   14.4622 F       1  UNL1       -0.1659
     21 C          58.4896   89.6135    6.4849 C.3     1  UNL1        0.0722
     22 C          59.1761   90.5494    5.5347 C.3     1  UNL1        0.0210
     23 C          58.3812   91.5857    4.7971 C.3     1  UNL1        0.0335
     24 C          59.0677   92.5216    3.8469 C.3     1  UNL1        0.1422
     25 O          60.5492   92.4212    3.6344 O.3     1  UNL1       -0.3538
     26 C          61.3441   91.3849    4.3720 C.3     1  UNL1        0.1422
     27 C          60.6576   90.4490    5.3222 C.3     1  UNL1        0.0335
@<TRIPOS>BOND
     1     1     2    2
     2     2     3    1
     3     3     4   ar
     4     4     5   ar
     5     5    17    1
     6    17    18    1
     7    17    19    1
     8    17    20    1
     9     5     6   ar
    10     6     7   ar
    11     7     8   ar
    12     8     9    1
    13     9    10    1
    14    10    11    1
    15    11    12    1
    16    12    13    1
    17    13    21    1
    18    21    22    1
    19    22    23    1
    20    23    24    1
    21    24    25    1
    22    25    26    1
    23    26    27    1
    24    13    14    1
    25    14    15    1
    26    10     2    1
    27    27    22    1
    28     8     3   ar
    29    15    10    1
    30     9    16    1
