@<TRIPOS>MOLECULE
*****
 33 36 0 0 0
SMALL
GASTEIGER

@<TRIPOS>ATOM
      1 C          60.5328   87.8957    9.2140 C.ar    1  UNL1        0.0701
      2 C          61.1190   86.5573    9.5531 C.ar    1  UNL1        0.1047
      3 N          61.9687   86.7203   10.7784 N.ar    1  UNL1       -0.2242
      4 N          62.7900   85.7442   11.5674 N.ar    1  UNL1       -0.1422
      5 C          63.5503   86.2072   12.7746 C.ar    1  UNL1        0.2211
      6 N          63.4893   87.6465   13.1929 N.ar    1  UNL1       -0.2060
      7 C          62.6679   88.6226   12.4039 C.ar    1  UNL1        0.1515
      8 C          61.9076   88.1595   11.1967 C.ar    1  UNL1        0.1107
      9 C          61.0202   88.8859   10.2298 C.ar    1  UNL1        0.0045
     10 C          60.6800   90.3462   10.2715 C.3     1  UNL1        0.0329
     11 N          59.8145   89.4393    7.2515 N.am    1  UNL1       -0.3008
     12 C          59.6196   88.1919    8.0615 C.2     1  UNL1        0.2471
     13 O          58.5115   87.2408    7.7189 O.2     1  UNL1       -0.2701
     14 H          60.5418   90.0635    7.4763 H       1  UNL1        0.1497
     15 C          58.9013   89.7355    6.0990 C.3     1  UNL1        0.0897
     16 C          57.7019   91.6530    4.8205 C.3     1  UNL1        0.0018
     17 C          58.9448   91.0793    5.4338 C.3     1  UNL1        0.0213
     18 N          62.6068   90.0618   12.8222 N.pl3   1  UNL1       -0.2969
     19 H          61.7375   90.5194   12.8859 H       1  UNL1        0.1536
     20 C          63.8703   90.8037   13.1434 C.ar    1  UNL1        0.0455
     21 C          64.5916   91.5581   12.0660 C.ar    1  UNL1        0.0188
     22 C          65.8550   92.3001   12.3872 C.ar    1  UNL1        0.0546
     23 C          66.3972   92.2876   13.7858 C.ar    1  UNL1        0.0043
     24 C          65.6760   91.5333   14.8631 C.ar    1  UNL1       -0.0029
     25 C          64.4125   90.7913   14.5419 C.ar    1  UNL1       -0.0084
     26 C          63.6912   90.0369   15.6192 C.3     1  UNL1        0.0323
     27 C          66.5763   93.0545   11.3099 C.2     1  UNL1        0.2458
     28 O          67.9167   92.5808   10.8313 O.2     1  UNL1       -0.2701
     29 N          65.9573   94.2826   10.7112 N.am    1  UNL1       -0.3025
     30 H          65.0776   94.5935   11.0253 H       1  UNL1        0.1497
     31 C          66.6785   95.0371    9.6339 C.3     1  UNL1        0.0720
     32 C          67.2859   95.0817    8.2631 C.3     1  UNL1        0.0213
     33 C          67.3203   96.2991    9.1387 C.3     1  UNL1        0.0213
@<TRIPOS>BOND
     1    16    17    1
     2    17    15    1
     3    15    11    1
     4    11    12   am
     5    12    13    2
     6    12     1    1
     7     1     2   ar
     8     2     3   ar
     9     3     4   ar
    10     4     5   ar
    11     5     6   ar
    12     6     7   ar
    13     7    18    1
    14    18    20    1
    15    20    21   ar
    16    21    22   ar
    17    22    27    1
    18    27    28    2
    19    27    29   am
    20    29    31    1
    21    31    32    1
    22    32    33    1
    23    22    23   ar
    24    23    24   ar
    25    24    25   ar
    26    25    26    1
    27     7     8   ar
    28     8     9   ar
    29     9    10    1
    30     9     1   ar
    31     8     3   ar
    32    25    20   ar
    33    33    31    1
    34    11    14    1
    35    18    19    1
    36    29    30    1
@<TRIPOS>MOLECULE
*****
 33 36 0 0 0
SMALL
GASTEIGER

@<TRIPOS>ATOM
      1 C          62.4681   85.7436   10.6543 C.ar    1  UNL1        0.0701
      2 C          61.7423   86.3044    9.4674 C.ar    1  UNL1        0.1047
      3 N          61.3655   87.7219    9.7816 N.ar    1  UNL1       -0.2242
      4 N          60.6373   88.7663    8.9886 N.ar    1  UNL1       -0.1422
      5 C          60.4020   90.1259    9.5767 C.ar    1  UNL1        0.2211
      6 N          60.8950   90.4412   10.9578 N.ar    1  UNL1       -0.2060
      7 C          61.6232   89.3969   11.7509 C.ar    1  UNL1        0.1515
      8 C          61.8585   88.0372   11.1628 C.ar    1  UNL1        0.1107
      9 C          62.5399   86.8146   11.7021 C.ar    1  UNL1        0.0045
     10 C          63.1806   86.6856   13.0522 C.3     1  UNL1        0.0329
     11 N          62.7498   83.5398   12.0010 N.am    1  UNL1       -0.3008
     12 C          63.0244   84.3556   10.7726 C.2     1  UNL1        0.2471
     13 O          63.8553   83.7835    9.6626 O.2     1  UNL1       -0.2701
     14 H          62.2044   83.9153   12.7295 H       1  UNL1        0.1497
     15 C          63.3061   82.1518   12.1193 C.3     1  UNL1        0.0897
     16 C          61.7158   81.2012   13.9406 C.3     1  UNL1        0.0018
     17 C          62.4437   81.0399   12.6390 C.3     1  UNL1        0.0213
     18 N          62.1162   89.7122   13.1320 N.pl3   1  UNL1       -0.2969
     19 H          61.5749   89.4648   13.9163 H       1  UNL1        0.1536
     20 C          63.4337   90.4045   13.3182 C.ar    1  UNL1        0.0455
     21 C          63.9482   91.3351   12.2602 C.ar    1  UNL1        0.0188
     22 C          65.2657   92.0274   12.4464 C.ar    1  UNL1        0.0546
     23 C          66.0689   91.7891   13.6906 C.ar    1  UNL1        0.0043
     24 C          65.5545   90.8586   14.7487 C.ar    1  UNL1       -0.0029
     25 C          64.2369   90.1662   14.5625 C.ar    1  UNL1       -0.0084
     26 C          63.7225   89.2357   15.6205 C.3     1  UNL1        0.0323
     27 C          65.7802   92.9580   11.3884 C.2     1  UNL1        0.2458
     28 O          66.2945   92.4078   10.0912 O.2     1  UNL1       -0.2701
     29 N          65.7802   94.4388   11.6276 N.am    1  UNL1       -0.3025
     30 H          65.4426   94.7999   12.4790 H       1  UNL1        0.1497
     31 C          66.2946   95.3694   10.5696 C.3     1  UNL1        0.0720
     32 C          67.2279   95.6514    9.4297 C.3     1  UNL1        0.0213
     33 C          66.2523   96.6993    9.8771 C.3     1  UNL1        0.0213
@<TRIPOS>BOND
     1    16    17    1
     2    17    15    1
     3    15    11    1
     4    11    12   am
     5    12    13    2
     6    12     1    1
     7     1     2   ar
     8     2     3   ar
     9     3     4   ar
    10     4     5   ar
    11     5     6   ar
    12     6     7   ar
    13     7    18    1
    14    18    20    1
    15    20    21   ar
    16    21    22   ar
    17    22    27    1
    18    27    28    2
    19    27    29   am
    20    29    31    1
    21    31    32    1
    22    32    33    1
    23    22    23   ar
    24    23    24   ar
    25    24    25   ar
    26    25    26    1
    27     7     8   ar
    28     8     9   ar
    29     9    10    1
    30     9     1   ar
    31     8     3   ar
    32    25    20   ar
    33    33    31    1
    34    11    14    1
    35    18    19    1
    36    29    30    1
@<TRIPOS>MOLECULE
*****
 33 36 0 0 0
SMALL
GASTEIGER

@<TRIPOS>ATOM
      1 C          64.9494   92.6096   11.4861 C.ar    1  UNL1        0.0701
      2 C          63.9682   92.1110   10.4669 C.ar    1  UNL1        0.1047
      3 N          63.4345   90.7927   10.9435 N.ar    1  UNL1       -0.2242
      4 N          62.4395   89.8393   10.3510 N.ar    1  UNL1       -0.1422
      5 C          62.0959   88.5698   11.0721 C.ar    1  UNL1        0.2211
      6 N          62.7472   88.2536   12.3858 N.ar    1  UNL1       -0.2060
      7 C          63.7421   89.2070   12.9784 C.ar    1  UNL1        0.1515
      8 C          64.0858   90.4765   12.2572 C.ar    1  UNL1        0.1107
      9 C          65.0220   91.5994   12.5925 C.ar    1  UNL1        0.0045
     10 C          65.8803   91.6953   13.8190 C.3     1  UNL1        0.0329
     11 N          65.3000   94.9685   10.4552 N.am    1  UNL1       -0.3008
     12 C          65.7222   93.8931   11.4118 C.2     1  UNL1        0.2471
     13 O          66.9173   94.1011   12.2941 O.2     1  UNL1       -0.2701
     14 H          64.5157   94.8320    9.8761 H       1  UNL1        0.1497
     15 C          66.0729   96.2520   10.3810 C.3     1  UNL1        0.0897
     16 C          67.5475   95.2550    8.4884 C.3     1  UNL1        0.0018
     17 C          67.2082   96.3887    9.4102 C.3     1  UNL1        0.0213
     18 N          64.3935   88.8908   14.2921 N.pl3   1  UNL1       -0.2969
     19 H          65.1667   89.4180   14.5977 H       1  UNL1        0.1536
     20 C          63.8666   87.7714   15.1402 C.ar    1  UNL1        0.0455
     21 C          63.9413   86.3570   14.6462 C.ar    1  UNL1        0.0188
     22 C          63.4145   85.2376   15.4944 C.ar    1  UNL1        0.0546
     23 C          62.8130   85.5325   16.8365 C.ar    1  UNL1        0.0043
     24 C          62.7384   86.9468   17.3305 C.ar    1  UNL1       -0.0029
     25 C          63.2652   88.0663   16.4823 C.ar    1  UNL1       -0.0084
     26 C          63.1905   89.4806   16.9763 C.3     1  UNL1        0.0323
     27 C          63.4891   83.8232   15.0004 C.2     1  UNL1        0.2458
     28 O          64.5963   82.9240   15.4647 O.2     1  UNL1       -0.2701
     29 N          62.4565   83.3080   14.0422 N.am    1  UNL1       -0.3025
     30 H          61.7297   83.8981   13.7374 H       1  UNL1        0.1497
     31 C          62.5310   81.8936   13.5482 C.3     1  UNL1        0.0720
     32 C          62.7631   80.9177   12.4330 C.3     1  UNL1        0.0213
     33 C          62.4282   80.4199   13.8077 C.3     1  UNL1        0.0213
@<TRIPOS>BOND
     1    16    17    1
     2    17    15    1
     3    15    11    1
     4    11    12   am
     5    12    13    2
     6    12     1    1
     7     1     2   ar
     8     2     3   ar
     9     3     4   ar
    10     4     5   ar
    11     5     6   ar
    12     6     7   ar
    13     7    18    1
    14    18    20    1
    15    20    21   ar
    16    21    22   ar
    17    22    27    1
    18    27    28    2
    19    27    29   am
    20    29    31    1
    21    31    32    1
    22    32    33    1
    23    22    23   ar
    24    23    24   ar
    25    24    25   ar
    26    25    26    1
    27     7     8   ar
    28     8     9   ar
    29     9    10    1
    30     9     1   ar
    31     8     3   ar
    32    25    20   ar
    33    33    31    1
    34    11    14    1
    35    18    19    1
    36    29    30    1
@<TRIPOS>MOLECULE
*****
 33 36 0 0 0
SMALL
GASTEIGER

@<TRIPOS>ATOM
      1 C          63.0947   83.2885   14.6433 C.ar    1  UNL1        0.0701
      2 C          62.3717   83.5279   15.9356 C.ar    1  UNL1        0.1047
      3 N          62.5576   84.9683   16.3108 N.ar    1  UNL1       -0.2242
      4 N          62.0722   85.7713   17.4810 N.ar    1  UNL1       -0.1422
      5 C          62.4247   87.2252   17.5909 C.ar    1  UNL1        0.2211
      6 N          63.2626   87.8759   16.5305 N.ar    1  UNL1       -0.2060
      7 C          63.7480   87.0729   15.3603 C.ar    1  UNL1        0.1515
      8 C          63.3955   85.6191   15.2505 C.ar    1  UNL1        0.1107
      9 C          63.7275   84.5809   14.2199 C.ar    1  UNL1        0.0045
     10 C          64.5481   84.7972   12.9831 C.3     1  UNL1        0.0329
     11 N          62.6012   81.8728   12.5215 N.am    1  UNL1       -0.3008
     12 C          63.1715   81.9855   13.9043 C.2     1  UNL1        0.2471
     13 O          63.8186   80.7951   14.5479 O.2     1  UNL1       -0.2701
     14 H          62.1764   82.6540   12.0991 H       1  UNL1        0.1497
     15 C          62.6779   80.5697   11.7825 C.3     1  UNL1        0.0897
     16 C          62.7708   79.3169    9.5083 C.3     1  UNL1        0.0018
     17 C          63.0100   80.5556   10.3197 C.3     1  UNL1        0.0213
     18 N          64.5859   87.7237   14.2999 N.pl3   1  UNL1       -0.2969
     19 H          65.5448   87.5115   14.2311 H       1  UNL1        0.1536
     20 C          63.9629   88.6977   13.3444 C.ar    1  UNL1        0.0455
     21 C          63.0378   88.2072   12.2703 C.ar    1  UNL1        0.0188
     22 C          62.4147   89.1812   11.3147 C.ar    1  UNL1        0.0546
     23 C          62.7167   90.6457   11.4333 C.ar    1  UNL1        0.0043
     24 C          63.6417   91.1362   12.5074 C.ar    1  UNL1       -0.0029
     25 C          64.2648   90.1622   13.4630 C.ar    1  UNL1       -0.0084
     26 C          65.1898   90.6527   14.5370 C.3     1  UNL1        0.0323
     27 C          61.4897   88.6907   10.2406 C.2     1  UNL1        0.2458
     28 O          60.5107   89.6334    9.6058 O.2     1  UNL1       -0.2701
     29 N          61.5436   87.2575    9.8012 N.am    1  UNL1       -0.3025
     30 H          62.1861   86.6388   10.2178 H       1  UNL1        0.1497
     31 C          60.6186   86.7670    8.7271 C.3     1  UNL1        0.0720
     32 C          60.3328   85.8414    7.5819 C.3     1  UNL1        0.0213
     33 C          59.3023   86.8430    8.0119 C.3     1  UNL1        0.0213
@<TRIPOS>BOND
     1    16    17    1
     2    17    15    1
     3    15    11    1
     4    11    12   am
     5    12    13    2
     6    12     1    1
     7     1     2   ar
     8     2     3   ar
     9     3     4   ar
    10     4     5   ar
    11     5     6   ar
    12     6     7   ar
    13     7    18    1
    14    18    20    1
    15    20    21   ar
    16    21    22   ar
    17    22    27    1
    18    27    28    2
    19    27    29   am
    20    29    31    1
    21    31    32    1
    22    32    33    1
    23    22    23   ar
    24    23    24   ar
    25    24    25   ar
    26    25    26    1
    27     7     8   ar
    28     8     9   ar
    29     9    10    1
    30     9     1   ar
    31     8     3   ar
    32    25    20   ar
    33    33    31    1
    34    11    14    1
    35    18    19    1
    36    29    30    1
@<TRIPOS>MOLECULE
*****
 33 36 0 0 0
SMALL
GASTEIGER

@<TRIPOS>ATOM
      1 C          62.1600   86.4269   10.5973 C.ar    1  UNL1        0.0701
      2 C          62.8306   85.3372   11.3801 C.ar    1  UNL1        0.1047
      3 N          63.3704   85.9390   12.6437 N.ar    1  UNL1       -0.2242
      4 N          64.1252   85.3449   13.7957 N.ar    1  UNL1       -0.1422
      5 C          64.5430   86.2124   14.9458 C.ar    1  UNL1        0.2211
      6 N          64.2060   87.6740   14.9439 N.ar    1  UNL1       -0.2060
      7 C          63.4512   88.2682   13.7919 C.ar    1  UNL1        0.1515
      8 C          63.0334   87.4007   12.6417 C.ar    1  UNL1        0.1107
      9 C          62.2854   87.7022   11.3770 C.ar    1  UNL1        0.0045
     10 C          61.7557   89.0435   10.9645 C.3     1  UNL1        0.0329
     11 N          60.0502   86.6809    9.1026 N.am    1  UNL1       -0.3008
     12 C          61.4830   86.2691    9.2681 C.2     1  UNL1        0.2471
     13 O          62.2388   85.6994    8.1044 O.2     1  UNL1       -0.2701
     14 H          59.5542   87.0549    9.8663 H       1  UNL1        0.1497
     15 C          59.3732   86.5231    7.7734 C.3     1  UNL1        0.0897
     16 C          59.5489   89.0709    7.2958 C.3     1  UNL1        0.0018
     17 C          58.9295   87.7352    7.0091 C.3     1  UNL1        0.0213
     18 N          63.1142   89.7298   13.7899 N.pl3   1  UNL1       -0.2969
     19 H          62.1840   90.0203   13.6500 H       1  UNL1        0.1536
     20 C          64.1944   90.7488   14.0012 C.ar    1  UNL1        0.0455
     21 C          64.9555   91.2895   12.8271 C.ar    1  UNL1        0.0188
     22 C          66.0357   92.3085   13.0384 C.ar    1  UNL1        0.0546
     23 C          66.3549   92.7869   14.4237 C.ar    1  UNL1        0.0043
     24 C          65.5939   92.2463   15.5978 C.ar    1  UNL1       -0.0029
     25 C          64.5136   91.2272   15.3866 C.ar    1  UNL1       -0.0084
     26 C          63.7526   90.6866   16.5607 C.3     1  UNL1        0.0323
     27 C          66.7968   92.8492   11.8642 C.2     1  UNL1        0.2458
     28 O          68.1207   92.2520   11.4892 O.2     1  UNL1       -0.2701
     29 N          66.2339   93.9870   11.0652 N.am    1  UNL1       -0.3025
     30 H          65.3650   94.3790   11.3113 H       1  UNL1        0.1497
     31 C          66.9949   94.5277    9.8911 C.3     1  UNL1        0.0720
     32 C          67.4699   95.6943    9.0766 C.3     1  UNL1        0.0213
     33 C          67.8381   94.2977    8.6721 C.3     1  UNL1        0.0213
@<TRIPOS>BOND
     1    16    17    1
     2    17    15    1
     3    15    11    1
     4    11    12   am
     5    12    13    2
     6    12     1    1
     7     1     2   ar
     8     2     3   ar
     9     3     4   ar
    10     4     5   ar
    11     5     6   ar
    12     6     7   ar
    13     7    18    1
    14    18    20    1
    15    20    21   ar
    16    21    22   ar
    17    22    27    1
    18    27    28    2
    19    27    29   am
    20    29    31    1
    21    31    32    1
    22    32    33    1
    23    22    23   ar
    24    23    24   ar
    25    24    25   ar
    26    25    26    1
    27     7     8   ar
    28     8     9   ar
    29     9    10    1
    30     9     1   ar
    31     8     3   ar
    32    25    20   ar
    33    33    31    1
    34    11    14    1
    35    18    19    1
    36    29    30    1
@<TRIPOS>MOLECULE
*****
 33 36 0 0 0
SMALL
GASTEIGER

@<TRIPOS>ATOM
      1 C          63.5190   90.3032   14.5059 C.ar    1  UNL1        0.0701
      2 C          64.7073   91.0624   13.9946 C.ar    1  UNL1        0.1047
      3 N          64.4797   91.3560   12.5413 N.ar    1  UNL1       -0.2242
      4 N          65.3109   92.0748   11.5204 N.ar    1  UNL1       -0.1422
      5 C          64.8130   92.2159   10.1125 C.ar    1  UNL1        0.2211
      6 N          63.4840   91.6381    9.7256 N.ar    1  UNL1       -0.2060
      7 C          62.6528   90.9193   10.7465 C.ar    1  UNL1        0.1515
      8 C          63.1506   90.7783   12.1544 C.ar    1  UNL1        0.1107
      9 C          62.5569   90.1276   13.3685 C.ar    1  UNL1        0.0045
     10 C          61.2334   89.4247   13.4338 C.3     1  UNL1        0.0329
     11 N          63.1437   88.3405   16.1663 N.am    1  UNL1       -0.3008
     12 C          63.3265   89.8068   15.9082 C.2     1  UNL1        0.2471
     13 O          63.3168   90.7766   17.0524 O.2     1  UNL1       -0.2701
     14 H          63.1501   87.7040   15.4153 H       1  UNL1        0.1497
     15 C          62.9513   87.8441   17.5686 C.3     1  UNL1        0.0897
     16 C          62.3948   85.4652   16.6846 C.3     1  UNL1        0.0018
     17 C          62.7305   86.3823   17.8231 C.3     1  UNL1        0.0213
     18 N          61.3237   90.3415   10.3596 N.pl3   1  UNL1       -0.2969
     19 H          60.5138   90.8999   10.3993 H       1  UNL1        0.1536
     20 C          61.2285   88.9130    9.9120 C.ar    1  UNL1        0.0455
     21 C          61.9254   87.8356   10.6889 C.ar    1  UNL1        0.0188
     22 C          61.8302   86.4071   10.2414 C.ar    1  UNL1        0.0546
     23 C          61.0382   86.0560    9.0168 C.ar    1  UNL1        0.0043
     24 C          60.3414   87.1333    8.2399 C.ar    1  UNL1       -0.0029
     25 C          60.4365   88.5619    8.6875 C.ar    1  UNL1       -0.0084
     26 C          59.7397   89.6392    7.9105 C.3     1  UNL1        0.0323
     27 C          62.5271   85.3297   11.0183 C.2     1  UNL1        0.2458
     28 O          63.3113   84.2733   10.2980 O.2     1  UNL1       -0.2701
     29 N          62.4397   85.3087   12.5156 N.am    1  UNL1       -0.3025
     30 H          61.9250   86.0021   12.9884 H       1  UNL1        0.1497
     31 C          63.1365   84.2314   13.2926 C.3     1  UNL1        0.0720
     32 C          64.3922   83.6586   13.8801 C.3     1  UNL1        0.0213
     33 C          63.0878   82.9381   14.0508 C.3     1  UNL1        0.0213
@<TRIPOS>BOND
     1    16    17    1
     2    17    15    1
     3    15    11    1
     4    11    12   am
     5    12    13    2
     6    12     1    1
     7     1     2   ar
     8     2     3   ar
     9     3     4   ar
    10     4     5   ar
    11     5     6   ar
    12     6     7   ar
    13     7    18    1
    14    18    20    1
    15    20    21   ar
    16    21    22   ar
    17    22    27    1
    18    27    28    2
    19    27    29   am
    20    29    31    1
    21    31    32    1
    22    32    33    1
    23    22    23   ar
    24    23    24   ar
    25    24    25   ar
    26    25    26    1
    27     7     8   ar
    28     8     9   ar
    29     9    10    1
    30     9     1   ar
    31     8     3   ar
    32    25    20   ar
    33    33    31    1
    34    11    14    1
    35    18    19    1
    36    29    30    1
@<TRIPOS>MOLECULE
*****
 33 36 0 0 0
SMALL
GASTEIGER

@<TRIPOS>ATOM
      1 C          62.5157   85.3169   11.0918 C.ar    1  UNL1        0.0701
      2 C          61.5948   85.4186    9.9121 C.ar    1  UNL1        0.1047
      3 N          61.0597   86.8190    9.8610 N.ar    1  UNL1       -0.2242
      4 N          60.1113   87.4972    8.9174 N.ar    1  UNL1       -0.1422
      5 C          59.7531   88.9394    9.1220 C.ar    1  UNL1        0.2211
      6 N          60.3433   89.7032   10.2701 N.ar    1  UNL1       -0.2060
      7 C          61.2917   89.0250   11.2137 C.ar    1  UNL1        0.1515
      8 C          61.6499   87.5828   11.0092 C.ar    1  UNL1        0.1107
      9 C          62.5497   86.6545   11.7698 C.ar    1  UNL1        0.0045
     10 C          63.3442   87.0027   12.9936 C.3     1  UNL1        0.0329
     11 N          62.9100   83.3979   12.7982 N.am    1  UNL1       -0.3008
     12 C          63.2701   84.0926   11.5185 C.2     1  UNL1        0.2471
     13 O          64.3845   83.5631   10.6655 O.2     1  UNL1       -0.2701
     14 H          62.1786   83.7455   13.3580 H       1  UNL1        0.1497
     15 C          63.6644   82.1737   13.2249 C.3     1  UNL1        0.0897
     16 C          61.4325   81.0392   13.9191 C.3     1  UNL1        0.0018
     17 C          62.9230   80.9843   13.7597 C.3     1  UNL1        0.0213
     18 N          61.8819   89.7888   12.3618 N.pl3   1  UNL1       -0.2969
     19 H          61.4825   89.7160   13.2587 H       1  UNL1        0.1536
     20 C          63.0806   90.6636   12.1434 C.ar    1  UNL1        0.0455
     21 C          63.9587   91.0356   13.3014 C.ar    1  UNL1        0.0188
     22 C          65.1574   91.9104   13.0830 C.ar    1  UNL1        0.0546
     23 C          65.4782   92.4133   11.7067 C.ar    1  UNL1        0.0043
     24 C          64.6002   92.0414   10.5488 C.ar    1  UNL1       -0.0029
     25 C          63.4014   91.1665   10.7671 C.ar    1  UNL1       -0.0084
     26 C          62.5235   90.7946    9.6092 C.3     1  UNL1        0.0323
     27 C          66.0354   92.2823   14.2410 C.2     1  UNL1        0.2458
     28 O          65.4653   92.3372   15.6272 O.2     1  UNL1       -0.2701
     29 N          67.4836   92.5994   14.0125 N.am    1  UNL1       -0.3025
     30 H          67.8578   92.5634   13.1026 H       1  UNL1        0.1497
     31 C          68.3617   92.9713   15.1704 C.3     1  UNL1        0.0720
     32 C          69.0400   94.0191   16.0023 C.3     1  UNL1        0.0213
     33 C          69.2041   92.5678   16.3440 C.3     1  UNL1        0.0213
@<TRIPOS>BOND
     1    16    17    1
     2    17    15    1
     3    15    11    1
     4    11    12   am
     5    12    13    2
     6    12     1    1
     7     1     2   ar
     8     2     3   ar
     9     3     4   ar
    10     4     5   ar
    11     5     6   ar
    12     6     7   ar
    13     7    18    1
    14    18    20    1
    15    20    21   ar
    16    21    22   ar
    17    22    27    1
    18    27    28    2
    19    27    29   am
    20    29    31    1
    21    31    32    1
    22    32    33    1
    23    22    23   ar
    24    23    24   ar
    25    24    25   ar
    26    25    26    1
    27     7     8   ar
    28     8     9   ar
    29     9    10    1
    30     9     1   ar
    31     8     3   ar
    32    25    20   ar
    33    33    31    1
    34    11    14    1
    35    18    19    1
    36    29    30    1
@<TRIPOS>MOLECULE
*****
 33 36 0 0 0
SMALL
GASTEIGER

@<TRIPOS>ATOM
      1 C          63.1579   82.2856   12.7041 C.ar    1  UNL1        0.0701
      2 C          63.6826   82.3911   14.1054 C.ar    1  UNL1        0.1047
      3 N          63.7873   83.8465   14.4529 N.ar    1  UNL1       -0.2242
      4 N          64.2421   84.5513   15.6964 N.ar    1  UNL1       -0.1422
      5 C          64.2369   86.0502   15.7534 C.ar    1  UNL1        0.2211
      6 N          63.7769   86.8443   14.5669 N.ar    1  UNL1       -0.2060
      7 C          63.3222   86.1395   13.3234 C.ar    1  UNL1        0.1515
      8 C          63.3274   84.6406   13.2664 C.ar    1  UNL1        0.1107
      9 C          62.9384   83.6759   12.1856 C.ar    1  UNL1        0.0045
     10 C          62.4207   84.0380   10.8251 C.3     1  UNL1        0.0329
     11 N          63.2063   80.9313   10.4875 N.am    1  UNL1       -0.3008
     12 C          62.8984   81.0133   11.9532 C.2     1  UNL1        0.2471
     13 O          62.3309   79.8230   12.6680 O.2     1  UNL1       -0.2701
     14 H          63.5788   81.7126   10.0183 H       1  UNL1        0.1497
     15 C          62.9468   79.6590    9.7366 C.3     1  UNL1        0.0897
     16 C          63.3707   77.1243   10.1182 C.3     1  UNL1        0.0018
     17 C          62.6576   78.3918   10.4854 C.3     1  UNL1        0.0213
     18 N          62.8622   86.9336   12.1368 N.pl3   1  UNL1       -0.2969
     19 H          62.3943   86.4851   11.3958 H       1  UNL1        0.1536
     20 C          63.1151   88.4110   12.0794 C.ar    1  UNL1        0.0455
     21 C          63.9189   89.0768   13.1568 C.ar    1  UNL1        0.0188
     22 C          64.1718   90.5541   13.0994 C.ar    1  UNL1        0.0546
     23 C          63.6210   91.3658   11.9646 C.ar    1  UNL1        0.0043
     24 C          62.8172   90.7001   10.8872 C.ar    1  UNL1       -0.0029
     25 C          62.5643   89.2226   10.9446 C.ar    1  UNL1       -0.0084
     26 C          61.7605   88.5569    9.8672 C.3     1  UNL1        0.0323
     27 C          64.9756   91.2199   14.1768 C.2     1  UNL1        0.2458
     28 O          64.3260   91.5895   15.4773 O.2     1  UNL1       -0.2701
     29 N          66.4290   91.5161   13.9536 N.am    1  UNL1       -0.3025
     30 H          66.8554   91.2736   13.1000 H       1  UNL1        0.1497
     31 C          67.2328   92.1819   15.0309 C.3     1  UNL1        0.0720
     32 C          67.5926   93.4113   15.8114 C.3     1  UNL1        0.0213
     33 C          68.2653   92.1057   16.1163 C.3     1  UNL1        0.0213
@<TRIPOS>BOND
     1    16    17    1
     2    17    15    1
     3    15    11    1
     4    11    12   am
     5    12    13    2
     6    12     1    1
     7     1     2   ar
     8     2     3   ar
     9     3     4   ar
    10     4     5   ar
    11     5     6   ar
    12     6     7   ar
    13     7    18    1
    14    18    20    1
    15    20    21   ar
    16    21    22   ar
    17    22    27    1
    18    27    28    2
    19    27    29   am
    20    29    31    1
    21    31    32    1
    22    32    33    1
    23    22    23   ar
    24    23    24   ar
    25    24    25   ar
    26    25    26    1
    27     7     8   ar
    28     8     9   ar
    29     9    10    1
    30     9     1   ar
    31     8     3   ar
    32    25    20   ar
    33    33    31    1
    34    11    14    1
    35    18    19    1
    36    29    30    1
@<TRIPOS>MOLECULE
*****
 33 36 0 0 0
SMALL
GASTEIGER

@<TRIPOS>ATOM
      1 C          60.3345   87.8329    8.9924 C.ar    1  UNL1        0.0701
      2 C          60.9422   86.4989    9.3103 C.ar    1  UNL1        0.1047
      3 N          61.8011   86.6595   10.5295 N.ar    1  UNL1       -0.2242
      4 N          62.6433   85.6858   11.2993 N.ar    1  UNL1       -0.1422
      5 C          63.4085   86.1454   12.5048 C.ar    1  UNL1        0.2211
      6 N          63.3316   87.5787   12.9404 N.ar    1  UNL1       -0.2060
      7 C          62.4894   88.5524   12.1706 C.ar    1  UNL1        0.1515
      8 C          61.7242   88.0928   10.9652 C.ar    1  UNL1        0.1107
      9 C          60.8178   88.8180   10.0152 C.ar    1  UNL1        0.0045
     10 C          60.4578   90.2728   10.0771 C.3     1  UNL1        0.0329
     11 N          59.5500   89.4087    7.0815 N.am    1  UNL1       -0.3008
     12 C          59.4064   88.1298    7.8520 C.2     1  UNL1        0.2471
     13 O          58.3348   87.1477    7.4820 O.2     1  UNL1       -0.2701
     14 H          60.2534   90.0533    7.3243 H       1  UNL1        0.1497
     15 C          58.6220   89.7055    5.9411 C.3     1  UNL1        0.0897
     16 C          59.3189   91.8045    4.5776 C.3     1  UNL1        0.0018
     17 C          58.3749   91.1255    5.5252 C.3     1  UNL1        0.0213
     18 N          62.4125   89.9856   12.6063 N.pl3   1  UNL1       -0.2969
     19 H          61.5902   90.3296   13.0243 H       1  UNL1        0.1536
     20 C          63.5884   90.8948   12.4051 C.ar    1  UNL1        0.0455
     21 C          64.4727   91.2453   13.5650 C.ar    1  UNL1        0.0188
     22 C          65.6486   92.1545   13.3638 C.ar    1  UNL1        0.0546
     23 C          65.9403   92.7133   12.0027 C.ar    1  UNL1        0.0043
     24 C          65.0561   92.3629   10.8428 C.ar    1  UNL1       -0.0029
     25 C          63.8801   91.4537   11.0440 C.ar    1  UNL1       -0.0084
     26 C          62.9959   91.1033    9.8841 C.3     1  UNL1        0.0323
     27 C          66.5329   92.5049   14.5237 C.2     1  UNL1        0.2458
     28 O          65.9870   92.4697   15.9204 O.2     1  UNL1       -0.2701
     29 N          67.9630   92.8904   14.2868 N.am    1  UNL1       -0.3025
     30 H          68.3213   92.9134   13.3701 H       1  UNL1        0.1497
     31 C          68.8473   93.2408   15.4466 C.3     1  UNL1        0.0720
     32 C          69.7144   92.8150   16.5942 C.3     1  UNL1        0.0213
     33 C          69.5118   94.2734   16.3080 C.3     1  UNL1        0.0213
@<TRIPOS>BOND
     1    16    17    1
     2    17    15    1
     3    15    11    1
     4    11    12   am
     5    12    13    2
     6    12     1    1
     7     1     2   ar
     8     2     3   ar
     9     3     4   ar
    10     4     5   ar
    11     5     6   ar
    12     6     7   ar
    13     7    18    1
    14    18    20    1
    15    20    21   ar
    16    21    22   ar
    17    22    27    1
    18    27    28    2
    19    27    29   am
    20    29    31    1
    21    31    32    1
    22    32    33    1
    23    22    23   ar
    24    23    24   ar
    25    24    25   ar
    26    25    26    1
    27     7     8   ar
    28     8     9   ar
    29     9    10    1
    30     9     1   ar
    31     8     3   ar
    32    25    20   ar
    33    33    31    1
    34    11    14    1
    35    18    19    1
    36    29    30    1
