@<TRIPOS>MOLECULE
*****
 37 39 0 0 0
SMALL
GASTEIGER

@<TRIPOS>ATOM
      1 C          63.5484   91.0269   12.5096 C.2     1  UNL1        0.2491
      2 O          62.9410   91.7422   11.3394 O.2     1  UNL1       -0.2699
      3 N          62.8001   89.9117   13.1777 N.am    1  UNL1       -0.2776
      4 C          67.3967   91.9960   12.5500 C.ar    1  UNL1        0.1723
      5 C          66.0410   91.5961   12.0479 C.ar    1  UNL1        0.0446
      6 C          64.9042   91.4268   13.0117 C.ar    1  UNL1        0.0568
      7 C          65.1230   91.6574   14.4776 C.ar    1  UNL1        0.0078
      8 C          66.4787   92.0572   14.9797 C.ar    1  UNL1        0.0402
      9 C          67.6156   92.2265   14.0159 C.ar    1  UNL1        0.1724
     10 O          68.9713   92.6264   14.5181 O.3     1  UNL1       -0.4684
     11 C          69.0934   93.5358   15.7047 C.3     1  UNL1        0.2526
     12 O          68.5335   92.1653   11.5862 O.3     1  UNL1       -0.4723
     13 C          68.3069   91.9671   10.1168 C.3     1  UNL1        0.2082
     14 C          68.5942   93.0829    9.1564 C.3     1  UNL1        0.0794
     15 C          67.7007   94.2872    9.1169 C.3     1  UNL1        0.1461
     16 C          65.9706   95.0997   10.8766 C.3     1  UNL1        0.1741
     17 O          67.3849   95.0285   10.3822 O.3     1  UNL1       -0.3510
     18 C          63.4075   89.1964   14.3479 C.3     1  UNL1        0.0757
     19 C          64.3070   88.0175   14.1218 C.3     1  UNL1        0.0215
     20 C          63.1155   89.6600   15.7442 C.3     1  UNL1        0.0215
     21 C          61.4444   89.5118   12.6756 C.3     1  UNL1        0.0967
     22 C          61.2994   88.9000   11.3137 C.3     1  UNL1        0.0549
     23 C          60.9634   89.6333   10.0490 C.3     1  UNL1        0.0720
     24 N          60.9213   88.6340    8.9310 N.3     1  UNL1       -0.2960
     25 C          61.2313   87.2832    9.5048 C.3     1  UNL1        0.0884
     26 C          61.4649   87.4476   10.9774 C.3     1  UNL1        0.0902
     27 H          61.6146   88.8769    8.2234 H       1  UNL1        0.1233
     28 N          61.8045   86.3520   11.9439 N.am    1  UNL1       -0.3045
     29 C          62.5069   85.1175   11.4617 C.2     1  UNL1        0.2221
     30 O          62.8698   84.9785   10.0129 O.2     1  UNL1       -0.2751
     31 H          61.5664   86.4431   12.8948 H       1  UNL1        0.1494
     32 C          62.8465   84.0218   12.4283 C.3     1  UNL1        0.0815
     33 C          62.7301   82.5870   12.0066 C.3     1  UNL1        0.0412
     34 C          63.0697   81.4914   12.9732 C.3     1  UNL1        0.1427
     35 O          63.5257   81.8305   14.3614 O.3     1  UNL1       -0.3538
     36 C          63.6420   83.2653   14.7830 C.3     1  UNL1        0.1427
     37 C          63.3024   84.3609   13.8165 C.3     1  UNL1        0.0412
@<TRIPOS>BOND
     1    16    17    1
     2    17    15    1
     3    15    14    1
     4    14    13    1
     5    13    12    1
     6    12     4    1
     7     4     5   ar
     8     5     6   ar
     9     6     1    1
    10     1     2    2
    11     1     3   am
    12     3    21    1
    13    22    21    1
    14    22    23    1
    15    23    24    1
    16    24    25    1
    17    25    26    1
    18    26    28    1
    19    28    29   am
    20    29    30    2
    21    29    32    1
    22    32    33    1
    23    33    34    1
    24    34    35    1
    25    35    36    1
    26    36    37    1
    27     3    18    1
    28    18    19    1
    29    18    20    1
    30     6     7   ar
    31     7     8   ar
    32     8     9   ar
    33     9    10    1
    34    10    11    1
    35     9     4   ar
    36    26    22    1
    37    37    32    1
    38    24    27    1
    39    28    31    1
@<TRIPOS>MOLECULE
*****
 37 39 0 0 0
SMALL
GASTEIGER

@<TRIPOS>ATOM
      1 C          62.7529   86.0427   10.9943 C.2     1  UNL1        0.2491
      2 O          63.1226   86.8360   12.2125 O.2     1  UNL1       -0.2699
      3 N          62.2165   86.7402    9.7795 N.am    1  UNL1       -0.2776
      4 C          62.3631   82.2235   12.0002 C.ar    1  UNL1        0.1723
      5 C          62.1965   83.7142   12.0036 C.ar    1  UNL1        0.0446
      6 C          62.9195   84.5520   10.9909 C.ar    1  UNL1        0.0568
      7 C          63.8092   83.8991    9.9750 C.ar    1  UNL1        0.0078
      8 C          63.9758   82.4084    9.9717 C.ar    1  UNL1        0.0402
      9 C          63.2528   81.5706   10.9843 C.ar    1  UNL1        0.1724
     10 O          63.4194   80.0799   10.9809 O.3     1  UNL1       -0.4684
     11 C          62.8496   79.2640    9.8585 C.3     1  UNL1        0.2526
     12 O          61.6401   81.3858   13.0128 O.3     1  UNL1       -0.4723
     13 C          61.7556   81.7084   14.4731 C.3     1  UNL1        0.2082
     14 C          62.8130   82.6595   14.9498 C.3     1  UNL1        0.0794
     15 C          62.4205   83.9636   15.5785 C.3     1  UNL1        0.1461
     16 C          64.5628   85.2589   14.8840 C.3     1  UNL1        0.1741
     17 O          63.0858   85.2359   15.1441 O.3     1  UNL1       -0.3510
     18 C          61.8468   85.9468    8.5612 C.3     1  UNL1        0.0757
     19 C          60.4092   85.8319    8.1488 C.3     1  UNL1        0.0215
     20 C          62.9148   85.2685    7.7554 C.3     1  UNL1        0.0215
     21 C          62.0498   88.2309    9.7828 C.3     1  UNL1        0.0967
     22 C          61.0349   88.8701   10.6835 C.3     1  UNL1        0.0549
     23 C          59.6138   88.4260   10.8656 C.3     1  UNL1        0.0720
     24 N          58.9634   89.3470   11.8550 N.3     1  UNL1       -0.2960
     25 C          59.9827   90.3604   12.2843 C.3     1  UNL1        0.0884
     26 C          61.2629   90.0656   11.5603 C.3     1  UNL1        0.0902
     27 H          58.6421   88.8151   12.6638 H       1  UNL1        0.1233
     28 N          62.5459   90.8318   11.6903 N.am    1  UNL1       -0.3045
     29 C          63.4257   90.6238   12.8871 C.2     1  UNL1        0.2221
     30 O          63.0227   89.6495   13.9541 O.2     1  UNL1       -0.2751
     31 H          62.8104   91.4712   10.9901 H       1  UNL1        0.1494
     32 C          64.7087   91.3900   13.0172 C.3     1  UNL1        0.0815
     33 C          65.1013   92.3800   11.9609 C.3     1  UNL1        0.0412
     34 C          66.3843   93.1463   12.0910 C.3     1  UNL1        0.1427
     35 O          67.2747   92.9224   13.2772 O.3     1  UNL1       -0.3538
     36 C          66.8820   91.9324   14.3334 C.3     1  UNL1        0.1427
     37 C          65.5990   91.1662   14.2034 C.3     1  UNL1        0.0412
@<TRIPOS>BOND
     1    16    17    1
     2    17    15    1
     3    15    14    1
     4    14    13    1
     5    13    12    1
     6    12     4    1
     7     4     5   ar
     8     5     6   ar
     9     6     1    1
    10     1     2    2
    11     1     3   am
    12     3    21    1
    13    22    21    1
    14    22    23    1
    15    23    24    1
    16    24    25    1
    17    25    26    1
    18    26    28    1
    19    28    29   am
    20    29    30    2
    21    29    32    1
    22    32    33    1
    23    33    34    1
    24    34    35    1
    25    35    36    1
    26    36    37    1
    27     3    18    1
    28    18    19    1
    29    18    20    1
    30     6     7   ar
    31     7     8   ar
    32     8     9   ar
    33     9    10    1
    34    10    11    1
    35     9     4   ar
    36    26    22    1
    37    37    32    1
    38    24    27    1
    39    28    31    1
@<TRIPOS>MOLECULE
*****
 37 39 0 0 0
SMALL
GASTEIGER

@<TRIPOS>ATOM
      1 C          62.0389   88.8505   10.4144 C.2     1  UNL1        0.2491
      2 O          62.6518   87.9077    9.4217 O.2     1  UNL1       -0.2699
      3 N          60.5657   88.7944   10.6914 N.am    1  UNL1       -0.2776
      4 C          64.2207   90.5738   13.2463 C.ar    1  UNL1        0.1723
      5 C          63.3606   89.5749   12.5306 C.ar    1  UNL1        0.0446
      6 C          62.8991   89.8495   11.1301 C.ar    1  UNL1        0.0568
      7 C          63.2978   91.1230   10.4452 C.ar    1  UNL1        0.0078
      8 C          64.1580   92.1219   11.1609 C.ar    1  UNL1        0.0402
      9 C          64.6195   91.8473   12.5614 C.ar    1  UNL1        0.1724
     10 O          65.4797   92.8462   13.2771 O.3     1  UNL1       -0.4684
     11 C          66.9578   92.6178   13.3912 C.3     1  UNL1        0.2526
     12 O          64.6822   90.2991   14.6469 O.3     1  UNL1       -0.4723
     13 C          63.8623   90.7679   15.8122 C.3     1  UNL1        0.2082
     14 C          63.1436   89.7714   16.6728 C.3     1  UNL1        0.0794
     15 C          63.3255   88.3022   16.4308 C.3     1  UNL1        0.1461
     16 C          62.5782   86.3162   17.9298 C.3     1  UNL1        0.1741
     17 O          62.2688   87.3331   16.8714 O.3     1  UNL1       -0.3510
     18 C          59.9528   89.7373   11.6842 C.3     1  UNL1        0.0757
     19 C          59.7305   89.2951   13.1001 C.3     1  UNL1        0.0215
     20 C          59.5624   91.1223   11.2609 C.3     1  UNL1        0.0215
     21 C          59.7055   87.7955    9.9758 C.3     1  UNL1        0.0967
     22 C          60.3322   86.7837    9.0628 C.3     1  UNL1        0.0549
     23 C          60.1767   86.7255    7.5720 C.3     1  UNL1        0.0720
     24 N          60.9727   85.5583    7.0681 N.3     1  UNL1       -0.2960
     25 C          61.6202   84.8951    8.2474 C.3     1  UNL1        0.0884
     26 C          61.2243   85.6525    9.4802 C.3     1  UNL1        0.0902
     27 H          61.6881   85.8824    6.4173 H       1  UNL1        0.1233
     28 N          61.6465   85.3344   10.8840 N.am    1  UNL1       -0.3045
     29 C          62.8694   84.5010   11.1288 C.2     1  UNL1        0.2221
     30 O          63.6702   83.9857    9.9698 O.2     1  UNL1       -0.2751
     31 H          61.1210   85.6726   11.6447 H       1  UNL1        0.1494
     32 C          63.2916   84.1829   12.5326 C.3     1  UNL1        0.0815
     33 C          63.7821   85.2767   13.4343 C.3     1  UNL1        0.0412
     34 C          64.2043   84.9586   14.8381 C.3     1  UNL1        0.1427
     35 O          64.1360   83.5467   15.3401 O.3     1  UNL1       -0.3538
     36 C          63.6455   82.4530   14.4384 C.3     1  UNL1        0.1427
     37 C          63.2233   82.7711   13.0346 C.3     1  UNL1        0.0412
@<TRIPOS>BOND
     1    16    17    1
     2    17    15    1
     3    15    14    1
     4    14    13    1
     5    13    12    1
     6    12     4    1
     7     4     5   ar
     8     5     6   ar
     9     6     1    1
    10     1     2    2
    11     1     3   am
    12     3    21    1
    13    22    21    1
    14    22    23    1
    15    23    24    1
    16    24    25    1
    17    25    26    1
    18    26    28    1
    19    28    29   am
    20    29    30    2
    21    29    32    1
    22    32    33    1
    23    33    34    1
    24    34    35    1
    25    35    36    1
    26    36    37    1
    27     3    18    1
    28    18    19    1
    29    18    20    1
    30     6     7   ar
    31     7     8   ar
    32     8     9   ar
    33     9    10    1
    34    10    11    1
    35     9     4   ar
    36    26    22    1
    37    37    32    1
    38    24    27    1
    39    28    31    1
@<TRIPOS>MOLECULE
*****
 37 39 0 0 0
SMALL
GASTEIGER

@<TRIPOS>ATOM
      1 C          63.0832   87.3077   13.4916 C.2     1  UNL1        0.2491
      2 O          62.2241   87.3158   12.2620 O.2     1  UNL1       -0.2699
      3 N          63.4095   86.0103   14.1699 N.am    1  UNL1       -0.2776
      4 C          64.9486   90.8034   13.7169 C.ar    1  UNL1        0.1723
      5 C          64.4159   89.5141   13.1658 C.ar    1  UNL1        0.0446
      6 C          63.6159   88.5971   14.0428 C.ar    1  UNL1        0.0568
      7 C          63.3486   88.9694   15.4710 C.ar    1  UNL1        0.0078
      8 C          63.8814   90.2587   16.0222 C.ar    1  UNL1        0.0402
      9 C          64.6813   91.1757   15.1452 C.ar    1  UNL1        0.1724
     10 O          65.2141   92.4651   15.6964 O.3     1  UNL1       -0.4684
     11 C          66.6734   92.5975   16.0172 C.3     1  UNL1        0.2526
     12 O          65.7486   91.7203   12.8399 O.3     1  UNL1       -0.4723
     13 C          65.1194   92.3331   11.6240 C.3     1  UNL1        0.2082
     14 C          65.9686   92.6947   10.4415 C.3     1  UNL1        0.0794
     15 C          66.8415   93.9136   10.4897 C.3     1  UNL1        0.1461
     16 C          68.7741   92.6315    9.3186 C.3     1  UNL1        0.1741
     17 O          68.1578   93.9222    9.7706 O.3     1  UNL1       -0.3510
     18 C          64.2686   86.0023   15.3996 C.3     1  UNL1        0.0757
     19 C          63.6333   85.9852   16.7583 C.3     1  UNL1        0.0215
     20 C          65.7630   86.0113   15.2705 C.3     1  UNL1        0.0215
     21 C          62.8768   84.7210   13.6188 C.3     1  UNL1        0.0967
     22 C          63.5392   84.0809   12.4349 C.3     1  UNL1        0.0549
     23 C          64.6972   83.1285   12.4806 C.3     1  UNL1        0.0720
     24 N          65.0336   82.7398   11.0714 N.3     1  UNL1       -0.2960
     25 C          64.0835   83.4519   10.1548 C.3     1  UNL1        0.0884
     26 C          63.1599   84.2807   10.9975 C.3     1  UNL1        0.0902
     27 H          64.9340   81.7311   10.9575 H       1  UNL1        0.1233
     28 N          62.0516   85.1557   10.4915 N.am    1  UNL1       -0.3045
     29 C          62.1869   85.8471    9.1673 C.2     1  UNL1        0.2221
     30 O          63.4305   85.6634    8.3489 O.2     1  UNL1       -0.2751
     31 H          61.2354   85.2763   11.0286 H       1  UNL1        0.1494
     32 C          61.0786   86.7221    8.6613 C.3     1  UNL1        0.0815
     33 C          60.0015   86.1418    7.7935 C.3     1  UNL1        0.0412
     34 C          58.8932   87.0168    7.2875 C.3     1  UNL1        0.1427
     35 O          58.8620   88.4722    7.6494 O.3     1  UNL1       -0.3538
     36 C          59.9390   89.0525    8.5172 C.3     1  UNL1        0.1427
     37 C          61.0473   88.1774    9.0232 C.3     1  UNL1        0.0412
@<TRIPOS>BOND
     1    16    17    1
     2    17    15    1
     3    15    14    1
     4    14    13    1
     5    13    12    1
     6    12     4    1
     7     4     5   ar
     8     5     6   ar
     9     6     1    1
    10     1     2    2
    11     1     3   am
    12     3    21    1
    13    22    21    1
    14    22    23    1
    15    23    24    1
    16    24    25    1
    17    25    26    1
    18    26    28    1
    19    28    29   am
    20    29    30    2
    21    29    32    1
    22    32    33    1
    23    33    34    1
    24    34    35    1
    25    35    36    1
    26    36    37    1
    27     3    18    1
    28    18    19    1
    29    18    20    1
    30     6     7   ar
    31     7     8   ar
    32     8     9   ar
    33     9    10    1
    34    10    11    1
    35     9     4   ar
    36    26    22    1
    37    37    32    1
    38    24    27    1
    39    28    31    1
@<TRIPOS>MOLECULE
*****
 37 39 0 0 0
SMALL
GASTEIGER

@<TRIPOS>ATOM
      1 C          62.7197   86.5420   11.1230 C.2     1  UNL1        0.2491
      2 O          63.0876   87.5042   12.2133 O.2     1  UNL1       -0.2699
      3 N          62.2128   87.0564    9.8083 N.am    1  UNL1       -0.2776
      4 C          62.5881   82.9877   12.8836 C.ar    1  UNL1        0.1723
      5 C          62.4491   84.4643   12.6592 C.ar    1  UNL1        0.0446
      6 C          62.8587   85.0654   11.3473 C.ar    1  UNL1        0.0568
      7 C          63.4071   84.1899   10.2599 C.ar    1  UNL1        0.0078
      8 C          63.5461   82.7133   10.4842 C.ar    1  UNL1        0.0402
      9 C          63.1366   82.1122   11.7961 C.ar    1  UNL1        0.1724
     10 O          63.2756   80.6356   12.0205 O.3     1  UNL1       -0.4684
     11 C          62.3714   79.9362   12.9917 C.3     1  UNL1        0.2526
     12 O          62.1786   82.3866   14.1954 O.3     1  UNL1       -0.4723
     13 C          62.6696   82.9848   15.4804 C.3     1  UNL1        0.2082
     14 C          63.8893   83.8579   15.4834 C.3     1  UNL1        0.0794
     15 C          63.8019   85.2667   15.9912 C.3     1  UNL1        0.1461
     16 C          62.5560   86.6076   17.8350 C.3     1  UNL1        0.1741
     17 O          62.5225   85.7696   16.5914 O.3     1  UNL1       -0.3510
     18 C          61.8449   86.0942    8.7179 C.3     1  UNL1        0.0757
     19 C          62.9202   85.3939    7.9413 C.3     1  UNL1        0.0215
     20 C          60.4016   85.8322    8.4043 C.3     1  UNL1        0.0215
     21 C          62.0738   88.5330    9.5839 C.3     1  UNL1        0.0967
     22 C          61.0805   89.3229   10.3835 C.3     1  UNL1        0.0549
     23 C          59.5995   89.0895   10.4284 C.3     1  UNL1        0.0720
     24 N          58.9975   90.1072   11.3513 N.3     1  UNL1       -0.2960
     25 C          60.1065   90.9697   11.8768 C.3     1  UNL1        0.0884
     26 C          61.3938   90.4850   11.2787 C.3     1  UNL1        0.0902
     27 H          58.5277   89.6376   12.1254 H       1  UNL1        0.1233
     28 N          62.7555   91.0612   11.5314 N.am    1  UNL1       -0.3045
     29 C          63.3986   90.9038   12.8773 C.2     1  UNL1        0.2221
     30 O          62.6800   90.1700   13.9707 O.2     1  UNL1       -0.2751
     31 H          63.2271   91.5428   10.8139 H       1  UNL1        0.1494
     32 C          64.7602   91.4800   13.1301 C.3     1  UNL1        0.0815
     33 C          65.5633   91.0174   14.3095 C.3     1  UNL1        0.0412
     34 C          66.9249   91.5937   14.5623 C.3     1  UNL1        0.1427
     35 O          67.4835   92.6324   13.6355 O.3     1  UNL1       -0.3538
     36 C          66.6805   93.0950   12.4560 C.3     1  UNL1        0.1427
     37 C          65.3189   92.5188   12.2033 C.3     1  UNL1        0.0412
@<TRIPOS>BOND
     1    16    17    1
     2    17    15    1
     3    15    14    1
     4    14    13    1
     5    13    12    1
     6    12     4    1
     7     4     5   ar
     8     5     6   ar
     9     6     1    1
    10     1     2    2
    11     1     3   am
    12     3    21    1
    13    22    21    1
    14    22    23    1
    15    23    24    1
    16    24    25    1
    17    25    26    1
    18    26    28    1
    19    28    29   am
    20    29    30    2
    21    29    32    1
    22    32    33    1
    23    33    34    1
    24    34    35    1
    25    35    36    1
    26    36    37    1
    27     3    18    1
    28    18    19    1
    29    18    20    1
    30     6     7   ar
    31     7     8   ar
    32     8     9   ar
    33     9    10    1
    34    10    11    1
    35     9     4   ar
    36    26    22    1
    37    37    32    1
    38    24    27    1
    39    28    31    1
@<TRIPOS>MOLECULE
*****
 37 39 0 0 0
SMALL
GASTEIGER

@<TRIPOS>ATOM
      1 C          62.0245   88.8065   10.4024 C.2     1  UNL1        0.2491
      2 O          62.7096   87.9808    9.3541 O.2     1  UNL1       -0.2699
      3 N          60.5293   88.7798   10.5195 N.am    1  UNL1       -0.2776
      4 C          64.2868   91.7702   11.7620 C.ar    1  UNL1        0.1723
      5 C          63.4767   90.9178   10.8308 C.ar    1  UNL1        0.0446
      6 C          62.8346   89.6589   11.3337 C.ar    1  UNL1        0.0568
      7 C          63.0026   89.2524   12.7677 C.ar    1  UNL1        0.0078
      8 C          63.8126   90.1048   13.6989 C.ar    1  UNL1        0.0402
      9 C          64.4548   91.3637   13.1960 C.ar    1  UNL1        0.1724
     10 O          65.2649   92.2161   14.1273 O.3     1  UNL1       -0.4684
     11 C          66.5327   91.6799   14.7232 C.3     1  UNL1        0.2526
     12 O          64.9289   93.0291   11.2591 O.3     1  UNL1       -0.4723
     13 C          66.4217   93.1731   11.2885 C.3     1  UNL1        0.2082
     14 C          67.2733   92.3434   10.3740 C.3     1  UNL1        0.0794
     15 C          68.0914   93.0054    9.3051 C.3     1  UNL1        0.1461
     16 C          67.5607   95.4662    8.6625 C.3     1  UNL1        0.1741
     17 O          68.4051   94.4692    9.3993 O.3     1  UNL1       -0.3510
     18 C          59.8442   89.6055   11.5678 C.3     1  UNL1        0.0757
     19 C          59.6900   91.0850   11.3748 C.3     1  UNL1        0.0215
     20 C          59.3134   88.9517   12.8091 C.3     1  UNL1        0.0215
     21 C          59.7192   87.9275    9.5883 C.3     1  UNL1        0.0967
     22 C          60.3791   86.8234    8.8166 C.3     1  UNL1        0.0549
     23 C          60.3119   86.6232    7.3316 C.3     1  UNL1        0.0720
     24 N          61.1134   85.4017    6.9916 N.3     1  UNL1       -0.2960
     25 C          61.6760   84.8469    8.2666 C.3     1  UNL1        0.0884
     26 C          61.2223   85.7256    9.3945 C.3     1  UNL1        0.0902
     27 H          61.8727   85.6512    6.3579 H       1  UNL1        0.1233
     28 N          61.5535   85.5391   10.8456 N.am    1  UNL1       -0.3045
     29 C          62.7063   84.6670   11.2457 C.2     1  UNL1        0.2221
     30 O          63.5282   83.9812   10.1947 O.2     1  UNL1       -0.2751
     31 H          61.0141   85.9892   11.5353 H       1  UNL1        0.1494
     32 C          63.0376   84.4805   12.6967 C.3     1  UNL1        0.0815
     33 C          63.6727   85.5975   13.4706 C.3     1  UNL1        0.0412
     34 C          64.0039   85.4111   14.9216 C.3     1  UNL1        0.1427
     35 O          63.7000   84.1076   15.5988 O.3     1  UNL1       -0.3538
     36 C          63.0648   82.9906   14.8250 C.3     1  UNL1        0.1427
     37 C          62.7336   83.1771   13.3739 C.3     1  UNL1        0.0412
@<TRIPOS>BOND
     1    16    17    1
     2    17    15    1
     3    15    14    1
     4    14    13    1
     5    13    12    1
     6    12     4    1
     7     4     5   ar
     8     5     6   ar
     9     6     1    1
    10     1     2    2
    11     1     3   am
    12     3    21    1
    13    22    21    1
    14    22    23    1
    15    23    24    1
    16    24    25    1
    17    25    26    1
    18    26    28    1
    19    28    29   am
    20    29    30    2
    21    29    32    1
    22    32    33    1
    23    33    34    1
    24    34    35    1
    25    35    36    1
    26    36    37    1
    27     3    18    1
    28    18    19    1
    29    18    20    1
    30     6     7   ar
    31     7     8   ar
    32     8     9   ar
    33     9    10    1
    34    10    11    1
    35     9     4   ar
    36    26    22    1
    37    37    32    1
    38    24    27    1
    39    28    31    1
@<TRIPOS>MOLECULE
*****
 37 39 0 0 0
SMALL
GASTEIGER

@<TRIPOS>ATOM
      1 C          62.3492   88.5168   11.4699 C.2     1  UNL1        0.2491
      2 O          62.8760   87.1693   11.8656 O.2     1  UNL1       -0.2699
      3 N          61.0449   88.6266   10.7372 N.am    1  UNL1       -0.2776
      4 C          64.2042   91.3229   13.5758 C.ar    1  UNL1        0.1723
      5 C          63.4267   90.0852   13.2388 C.ar    1  UNL1        0.0446
      6 C          63.1266   89.7546   11.8068 C.ar    1  UNL1        0.0568
      7 C          63.6040   90.6618   10.7118 C.ar    1  UNL1        0.0078
      8 C          64.3814   91.8995   11.0487 C.ar    1  UNL1        0.0402
      9 C          64.6815   92.2301   12.4807 C.ar    1  UNL1        0.1724
     10 O          65.4590   93.4679   12.8177 O.3     1  UNL1       -0.4684
     11 C          66.2184   94.1916   11.7455 C.3     1  UNL1        0.2526
     12 O          64.5043   91.6535   15.0078 O.3     1  UNL1       -0.4723
     13 C          65.8534   92.1880   15.3873 C.3     1  UNL1        0.2082
     14 C          67.0909   91.4134   15.0430 C.3     1  UNL1        0.0794
     15 C          68.1066   91.9994   14.1076 C.3     1  UNL1        0.1461
     16 C          68.9888   93.7096   15.8531 C.3     1  UNL1        0.1741
     17 O          69.2188   92.8502   14.6455 O.3     1  UNL1       -0.3510
     18 C          60.5181   89.9742   10.3414 C.3     1  UNL1        0.0757
     19 C          59.9229   90.8807   11.3777 C.3     1  UNL1        0.0215
     20 C          60.5866   90.4152    8.9094 C.3     1  UNL1        0.0215
     21 C          60.2674   87.3889   10.4003 C.3     1  UNL1        0.0967
     22 C          60.7541   86.4681    9.3208 C.3     1  UNL1        0.0549
     23 C          60.5780   86.6690    7.8448 C.3     1  UNL1        0.0720
     24 N          61.2175   85.5098    7.1396 N.3     1  UNL1       -0.2960
     25 C          61.7888   84.5924    8.1798 C.3     1  UNL1        0.0884
     26 C          61.5024   85.1846    9.5278 C.3     1  UNL1        0.0902
     27 H          61.9613   85.8447    6.5273 H       1  UNL1        0.1233
     28 N          61.8954   84.5967   10.8506 N.am    1  UNL1       -0.3045
     29 C          63.1663   83.8097   10.9738 C.2     1  UNL1        0.2221
     30 O          64.0445   83.6106    9.7741 O.2     1  UNL1       -0.2751
     31 H          61.3190   84.7273   11.6381 H       1  UNL1        0.1494
     32 C          63.5592   83.2217   12.2966 C.3     1  UNL1        0.0815
     33 C          63.4191   81.7472   12.5333 C.3     1  UNL1        0.0412
     34 C          63.8120   81.1592   13.8561 C.3     1  UNL1        0.1427
     35 O          64.3451   82.0457   14.9423 O.3     1  UNL1       -0.3538
     36 C          64.4853   83.5203   14.7056 C.3     1  UNL1        0.1427
     37 C          64.0924   84.1083   13.3828 C.3     1  UNL1        0.0412
@<TRIPOS>BOND
     1    16    17    1
     2    17    15    1
     3    15    14    1
     4    14    13    1
     5    13    12    1
     6    12     4    1
     7     4     5   ar
     8     5     6   ar
     9     6     1    1
    10     1     2    2
    11     1     3   am
    12     3    21    1
    13    22    21    1
    14    22    23    1
    15    23    24    1
    16    24    25    1
    17    25    26    1
    18    26    28    1
    19    28    29   am
    20    29    30    2
    21    29    32    1
    22    32    33    1
    23    33    34    1
    24    34    35    1
    25    35    36    1
    26    36    37    1
    27     3    18    1
    28    18    19    1
    29    18    20    1
    30     6     7   ar
    31     7     8   ar
    32     8     9   ar
    33     9    10    1
    34    10    11    1
    35     9     4   ar
    36    26    22    1
    37    37    32    1
    38    24    27    1
    39    28    31    1
@<TRIPOS>MOLECULE
*****
 37 39 0 0 0
SMALL
GASTEIGER

@<TRIPOS>ATOM
      1 C          62.5608   85.2350    9.2513 C.2     1  UNL1        0.2491
      2 O          63.1122   84.2103    8.3048 O.2     1  UNL1       -0.2699
      3 N          62.9595   85.2119   10.6972 N.am    1  UNL1       -0.2776
      4 C          60.7431   88.7316    8.7826 C.ar    1  UNL1        0.1723
      5 C          61.6932   87.6837    9.2818 C.ar    1  UNL1        0.0446
      6 C          61.6106   86.2828    8.7520 C.ar    1  UNL1        0.0568
      7 C          60.5780   85.9298    7.7230 C.ar    1  UNL1        0.0078
      8 C          59.6279   86.9776    7.2237 C.ar    1  UNL1        0.0402
      9 C          59.7105   88.3785    7.7535 C.ar    1  UNL1        0.1724
     10 O          58.7603   89.4264    7.2542 O.3     1  UNL1       -0.4684
     11 C          58.9987   90.0838    5.9272 C.3     1  UNL1        0.2526
     12 O          60.8256   90.1325    9.3124 O.3     1  UNL1       -0.4723
     13 C          61.4042   90.3870   10.6726 C.3     1  UNL1        0.2082
     14 C          62.7892   90.9476   10.8057 C.3     1  UNL1        0.0794
     15 C          63.5393   90.7951   12.0957 C.3     1  UNL1        0.1461
     16 C          65.5414   92.4328   12.3390 C.3     1  UNL1        0.1741
     17 O          64.1660   91.9933   12.7450 O.3     1  UNL1       -0.3510
     18 C          62.4081   86.2366   11.6437 C.3     1  UNL1        0.0757
     19 C          63.3254   87.2338   12.2872 C.3     1  UNL1        0.0215
     20 C          60.9393   86.2642   11.9467 C.3     1  UNL1        0.0215
     21 C          63.9096   84.1641   11.1965 C.3     1  UNL1        0.0967
     22 C          63.3815   82.9343   11.8739 C.3     1  UNL1        0.0549
     23 C          63.3920   81.5441   11.3107 C.3     1  UNL1        0.0720
     24 N          62.7672   80.6295   12.3221 N.3     1  UNL1       -0.2960
     25 C          62.3705   81.4544   13.5105 C.3     1  UNL1        0.0884
     26 C          62.7502   82.8789   13.2334 C.3     1  UNL1        0.0902
     27 H          63.4388   79.9157   12.6049 H       1  UNL1        0.1233
     28 N          62.5361   84.0434   14.1543 N.am    1  UNL1       -0.3045
     29 C          63.7059   84.6765   14.8474 C.2     1  UNL1        0.2221
     30 O          65.0901   84.1450   14.6198 O.2     1  UNL1       -0.2751
     31 H          61.6276   84.3923   14.3037 H       1  UNL1        0.1494
     32 C          63.4918   85.8410   15.7683 C.3     1  UNL1        0.0815
     33 C          63.9060   87.2188   15.3439 C.3     1  UNL1        0.0412
     34 C          63.6919   88.3834   16.2648 C.3     1  UNL1        0.1427
     35 O          63.0636   88.1702   17.6100 O.3     1  UNL1       -0.3538
     36 C          62.6494   86.7924   18.0344 C.3     1  UNL1        0.1427
     37 C          62.8635   85.6278   17.1136 C.3     1  UNL1        0.0412
@<TRIPOS>BOND
     1    16    17    1
     2    17    15    1
     3    15    14    1
     4    14    13    1
     5    13    12    1
     6    12     4    1
     7     4     5   ar
     8     5     6   ar
     9     6     1    1
    10     1     2    2
    11     1     3   am
    12     3    21    1
    13    22    21    1
    14    22    23    1
    15    23    24    1
    16    24    25    1
    17    25    26    1
    18    26    28    1
    19    28    29   am
    20    29    30    2
    21    29    32    1
    22    32    33    1
    23    33    34    1
    24    34    35    1
    25    35    36    1
    26    36    37    1
    27     3    18    1
    28    18    19    1
    29    18    20    1
    30     6     7   ar
    31     7     8   ar
    32     8     9   ar
    33     9    10    1
    34    10    11    1
    35     9     4   ar
    36    26    22    1
    37    37    32    1
    38    24    27    1
    39    28    31    1
@<TRIPOS>MOLECULE
*****
 37 39 0 0 0
SMALL
GASTEIGER

@<TRIPOS>ATOM
      1 C          64.3558   86.0240   15.0451 C.2     1  UNL1        0.2491
      2 O          65.5188   85.5465   14.2271 O.2     1  UNL1       -0.2699
      3 N          63.3841   85.0344   15.6165 N.am    1  UNL1       -0.2776
      4 C          64.5428   89.9608   14.5792 C.ar    1  UNL1        0.1723
      5 C          64.7342   88.4937   14.3325 C.ar    1  UNL1        0.0446
      6 C          64.1644   87.4912   15.2919 C.ar    1  UNL1        0.0568
      7 C          63.4032   87.9559   16.4979 C.ar    1  UNL1        0.0078
      8 C          63.2118   89.4230   16.7446 C.ar    1  UNL1        0.0402
      9 C          63.7816   90.4255   15.7853 C.ar    1  UNL1        0.1724
     10 O          63.5902   91.8926   16.0320 O.3     1  UNL1       -0.4684
     11 C          64.5761   92.6463   16.8746 C.3     1  UNL1        0.2526
     12 O          65.1127   90.9632   13.6198 O.3     1  UNL1       -0.4723
     13 C          66.4338   91.6118   13.9096 C.3     1  UNL1        0.2082
     14 C          66.5939   93.0941   13.7445 C.3     1  UNL1        0.0794
     15 C          66.2032   93.7515   12.4540 C.3     1  UNL1        0.1461
     16 C          67.2334   92.5328   10.4039 C.3     1  UNL1        0.1741
     17 O          67.1492   93.7401   11.2900 O.3     1  UNL1       -0.3510
     18 C          62.2210   85.5120   16.4346 C.3     1  UNL1        0.0757
     19 C          60.8453   85.5402   15.8375 C.3     1  UNL1        0.0215
     20 C          62.4337   85.9613   17.8498 C.3     1  UNL1        0.0215
     21 C          63.5754   83.5673   15.3698 C.3     1  UNL1        0.0967
     22 C          63.3791   83.0065   13.9925 C.3     1  UNL1        0.0549
     23 C          63.6741   81.5999   13.5629 C.3     1  UNL1        0.0720
     24 N          63.3306   81.4779   12.1079 N.3     1  UNL1       -0.2960
     25 C          62.8233   82.8090   11.6382 C.3     1  UNL1        0.0884
     26 C          62.8533   83.7537   12.8029 C.3     1  UNL1        0.0902
     27 H          62.6092   80.7681   11.9809 H       1  UNL1        0.1233
     28 N          62.4314   85.1930   12.7818 N.am    1  UNL1       -0.3045
     29 C          62.2537   85.9034   11.4727 C.2     1  UNL1        0.2221
     30 O          62.4978   85.1744   10.1846 O.2     1  UNL1       -0.2751
     31 H          62.2712   85.6715   13.6272 H       1  UNL1        0.1494
     32 C          61.8319   87.3427   11.4516 C.3     1  UNL1        0.0815
     33 C          60.3971   87.7001   11.1997 C.3     1  UNL1        0.0412
     34 C          59.9753   89.1394   11.1785 C.3     1  UNL1        0.1427
     35 O          60.9883   90.2213   11.4093 O.3     1  UNL1       -0.3538
     36 C          62.4231   89.8639   11.6612 C.3     1  UNL1        0.1427
     37 C          62.8449   88.4246   11.6824 C.3     1  UNL1        0.0412
@<TRIPOS>BOND
     1    16    17    1
     2    17    15    1
     3    15    14    1
     4    14    13    1
     5    13    12    1
     6    12     4    1
     7     4     5   ar
     8     5     6   ar
     9     6     1    1
    10     1     2    2
    11     1     3   am
    12     3    21    1
    13    22    21    1
    14    22    23    1
    15    23    24    1
    16    24    25    1
    17    25    26    1
    18    26    28    1
    19    28    29   am
    20    29    30    2
    21    29    32    1
    22    32    33    1
    23    33    34    1
    24    34    35    1
    25    35    36    1
    26    36    37    1
    27     3    18    1
    28    18    19    1
    29    18    20    1
    30     6     7   ar
    31     7     8   ar
    32     8     9   ar
    33     9    10    1
    34    10    11    1
    35     9     4   ar
    36    26    22    1
    37    37    32    1
    38    24    27    1
    39    28    31    1
