@<TRIPOS>MOLECULE
*****
 37 38 0 0 0
SMALL
GASTEIGER

@<TRIPOS>ATOM
      1 C          63.8358   89.4421   13.8710 C.ar    1  UNL1        0.1762
      2 N          64.1903   88.2461   14.7040 N.ar    1  UNL1       -0.0417
      3 O          63.8257   87.0157   13.9273 O.2     1  UNL1       -0.2408
      4 N          63.2459   87.4514   12.6142 N.ar    1  UNL1       -0.0399
      5 C          63.2521   88.9510   12.5795 C.ar    1  UNL1        0.2348
      6 C          62.7609   89.8088   11.4513 C.2     1  UNL1        0.3935
      7 N          63.6591   90.8529   10.8569 N.2     1  UNL1        0.1538
      8 O          63.1679   91.7107    9.7287 O.2     1  UNL1       -0.3110
      9 H          63.7290   92.3629    9.3574 H       1  UNL1        0.3605
     10 N          61.3716   89.6226   10.9174 N.pl3   1  UNL1       -0.1943
     11 H          60.6473   90.2217   11.2102 H       1  UNL1        0.2987
     12 C          61.0857   88.5236    9.9374 C.ar    1  UNL1        0.1358
     13 C          59.7836   88.5024    9.1931 C.ar    1  UNL1        0.0424
     14 C          59.4977   87.4033    8.2131 C.ar    1  UNL1        0.0330
     15 C          60.5139   86.3255    7.9775 C.ar    1  UNL1        0.1416
     16 F          60.2280   85.2264    6.9975 F       1  UNL1       -0.2043
     17 C          61.8161   86.3466    8.7218 C.ar    1  UNL1        0.0744
     18 C          62.1019   87.4457    9.7018 C.ar    1  UNL1        0.0435
     19 C          62.8322   85.2688    8.4862 C.3     1  UNL1        0.3433
     20 F          63.1312   84.8123    7.0890 F       1  UNL1       -0.1932
     21 F          63.5495   84.6474    9.6478 F       1  UNL1       -0.1932
     22 S          64.0307   90.8773   14.2611 S.3     1  UNL1       -0.0881
     23 C          65.3462   91.3302   14.8216 C.3     1  UNL1        0.0850
     24 C          66.4779   91.6705   13.8977 C.3     1  UNL1        0.1015
     25 C          66.0454   93.6741   12.3014 C.2     1  UNL1        0.2403
     26 O          66.1863   94.6232   13.4544 O.2     1  UNL1       -0.2735
     27 N          66.1912   92.1978   12.5231 N.am    1  UNL1       -0.3023
     28 H          66.0987   91.5749   11.7663 H       1  UNL1        0.1495
     29 C          65.7587   94.2014   10.9267 C.3     1  UNL1        0.1770
     30 N          66.4168   93.5776    9.7318 N.3     1  UNL1       -0.1603
     31 H          65.9838   92.6634    9.6010 H       1  UNL1        0.1504
     32 N          69.3848   93.1412    9.7112 N.3     1  UNL1       -0.1934
     33 S          67.9008   93.3594    9.7215 S.O2    1  UNL1        0.0931
     34 O          67.6839   91.8793    9.8325 O.2     1  UNL1       -0.1415
     35 O          68.1176   94.8395    9.6105 O.2     1  UNL1       -0.1415
     36 H          69.8602   94.0406    9.6377 H       1  UNL1        0.1453
     37 H          69.6370   92.5571    8.9139 H       1  UNL1        0.1453
@<TRIPOS>BOND
     1    32    33    1
     2    33    34    2
     3    33    35    2
     4    33    30    1
     5    30    29    1
     6    29    25    1
     7    25    26    2
     8    25    27   am
     9    27    24    1
    10    24    23    1
    11    23    22    1
    12    22     1    1
    13     1     2   ar
    14     2     3   ar
    15     3     4   ar
    16     4     5   ar
    17     5     6    1
    18     6     7    2
    19     7     8    1
    20     6    10    1
    21    10    12    1
    22    12    13   ar
    23    13    14   ar
    24    14    15   ar
    25    15    16    1
    26    15    17   ar
    27    17    19    1
    28    19    20    1
    29    19    21    1
    30    17    18   ar
    31     5     1   ar
    32    18    12   ar
    33    32    36    1
    34    32    37    1
    35    30    31    1
    36    27    28    1
    37     8     9    1
    38    10    11    1
@<TRIPOS>MOLECULE
*****
 37 38 0 0 0
SMALL
GASTEIGER

@<TRIPOS>ATOM
      1 C          66.5989   92.4093   12.4488 C.ar    1  UNL1        0.1762
      2 N          67.9725   92.2280   11.8740 N.ar    1  UNL1       -0.0417
      3 O          68.8613   91.6927   12.9573 O.2     1  UNL1       -0.2408
      4 N          68.0370   91.5432   14.2016 N.ar    1  UNL1       -0.0399
      5 C          66.6387   91.9861   13.8873 C.ar    1  UNL1        0.2348
      6 C          65.4832   92.0028   14.8437 C.2     1  UNL1        0.3935
      7 N          65.5840   92.7706   16.1284 N.2     1  UNL1        0.1538
      8 O          64.4285   92.7873   17.0847 O.2     1  UNL1       -0.3110
      9 H          64.4915   93.2669   17.8872 H       1  UNL1        0.3605
     10 N          64.2270   91.2518   14.5153 N.pl3   1  UNL1       -0.1943
     11 H          63.5683   91.6413   13.8959 H       1  UNL1        0.2987
     12 C          63.9743   89.9074   15.1307 C.ar    1  UNL1        0.1358
     13 C          63.3228   89.8099   16.4782 C.ar    1  UNL1        0.0424
     14 C          63.0701   88.4655   17.0936 C.ar    1  UNL1        0.0330
     15 C          63.4689   87.2186   16.3614 C.ar    1  UNL1        0.1416
     16 F          63.2162   85.8741   16.9768 F       1  UNL1       -0.2043
     17 C          64.1205   87.3160   15.0138 C.ar    1  UNL1        0.0744
     18 C          64.3732   88.6605   14.3984 C.ar    1  UNL1        0.0435
     19 C          64.5193   86.0692   14.2816 C.3     1  UNL1        0.3433
     20 F          63.7590   85.6399   13.0619 F       1  UNL1       -0.1932
     21 F          65.6785   85.2515   14.7691 F       1  UNL1       -0.1932
     22 S          65.3965   92.9236   11.7141 S.3     1  UNL1       -0.0881
     23 C          64.6468   92.0220   10.7788 C.3     1  UNL1        0.0850
     24 C          63.5163   91.1808   11.2929 C.3     1  UNL1        0.1015
     25 C          61.3344   89.8732   10.7644 C.2     1  UNL1        0.2403
     26 O          61.6255   88.9305   11.8943 O.2     1  UNL1       -0.2735
     27 N          62.2797   90.9983   10.4637 N.am    1  UNL1       -0.3023
     28 H          62.0886   91.6170    9.7222 H       1  UNL1        0.1495
     29 C          60.0978   89.6907    9.9352 C.3     1  UNL1        0.1770
     30 N          60.2143   89.3248    8.4852 N.3     1  UNL1       -0.1603
     31 H          59.9628   90.1563    7.9506 H       1  UNL1        0.1504
     32 N          58.5926   87.0581    7.3752 N.3     1  UNL1       -0.1934
     33 S          59.4035   88.1915    7.9302 S.O2    1  UNL1        0.0931
     34 O          59.0421   89.0321    6.7416 O.2     1  UNL1       -0.1415
     35 O          59.7649   87.3509    9.1189 O.2     1  UNL1       -0.1415
     36 H          58.6406   86.2623    8.0114 H       1  UNL1        0.1453
     37 H          58.9643   86.7882    6.4645 H       1  UNL1        0.1453
@<TRIPOS>BOND
     1    32    33    1
     2    33    34    2
     3    33    35    2
     4    33    30    1
     5    30    29    1
     6    29    25    1
     7    25    26    2
     8    25    27   am
     9    27    24    1
    10    24    23    1
    11    23    22    1
    12    22     1    1
    13     1     2   ar
    14     2     3   ar
    15     3     4   ar
    16     4     5   ar
    17     5     6    1
    18     6     7    2
    19     7     8    1
    20     6    10    1
    21    10    12    1
    22    12    13   ar
    23    13    14   ar
    24    14    15   ar
    25    15    16    1
    26    15    17   ar
    27    17    19    1
    28    19    20    1
    29    19    21    1
    30    17    18   ar
    31     5     1   ar
    32    18    12   ar
    33    32    36    1
    34    32    37    1
    35    30    31    1
    36    27    28    1
    37     8     9    1
    38    10    11    1
@<TRIPOS>MOLECULE
*****
 37 38 0 0 0
SMALL
GASTEIGER

@<TRIPOS>ATOM
      1 C          64.3366   90.7499   13.3980 C.ar    1  UNL1        0.1762
      2 N          64.8202   92.0865   12.9188 N.ar    1  UNL1       -0.0417
      3 O          64.3142   92.2887   11.5213 O.2     1  UNL1       -0.2408
      4 N          63.5179   91.0770   11.1368 N.ar    1  UNL1       -0.0399
      5 C          63.5318   90.1259   12.2966 C.ar    1  UNL1        0.2348
      6 C          62.8590   88.7862   12.3464 C.2     1  UNL1        0.3935
      7 N          63.5944   87.5974   12.8904 N.2     1  UNL1        0.1538
      8 O          62.9216   86.2577   12.9402 O.2     1  UNL1       -0.3110
      9 H          63.3810   85.5150   13.2800 H       1  UNL1        0.3605
     10 N          61.4508   88.6353   11.8522 N.pl3   1  UNL1       -0.1943
     11 H          60.7103   89.0667   12.3366 H       1  UNL1        0.2987
     12 C          61.1710   87.8272   10.6199 C.ar    1  UNL1        0.1358
     13 C          59.8781   88.0087    9.8815 C.ar    1  UNL1        0.0424
     14 C          59.5982   87.2006    8.6492 C.ar    1  UNL1        0.0330
     15 C          60.6114   86.2110    8.1552 C.ar    1  UNL1        0.1416
     16 F          60.3316   85.4028    6.9228 F       1  UNL1       -0.2043
     17 C          61.9045   86.0294    8.8935 C.ar    1  UNL1        0.0744
     18 C          62.1843   86.8375   10.1259 C.ar    1  UNL1        0.0435
     19 C          62.9177   85.0398    8.3995 C.3     1  UNL1        0.3433
     20 F          63.7223   84.2379    9.3790 F       1  UNL1       -0.1932
     21 F          63.1262   84.8521    6.9260 F       1  UNL1       -0.1932
     22 S          64.6100   90.1436   14.7425 S.3     1  UNL1       -0.0881
     23 C          63.5549   90.1754   15.8081 C.3     1  UNL1        0.0850
     24 C          63.0773   88.8963   16.4293 C.3     1  UNL1        0.1015
     25 C          63.1752   86.3049   16.5864 C.2     1  UNL1        0.2403
     26 O          62.3436   86.3491   17.8340 O.2     1  UNL1       -0.2735
     27 N          63.5420   87.5785   15.8841 N.am    1  UNL1       -0.3023
     28 H          64.0878   87.5495   15.0652 H       1  UNL1        0.1495
     29 C          63.6399   84.9870   16.0411 C.3     1  UNL1        0.1770
     30 N          62.8552   84.3037   14.9607 N.3     1  UNL1       -0.1603
     31 H          61.9638   84.0286   15.3732 H       1  UNL1        0.1504
     32 N          63.9709   81.8700   13.6071 N.3     1  UNL1       -0.1934
     33 S          63.4130   83.0868   14.2839 S.O2    1  UNL1        0.0931
     34 O          64.4803   83.9287   13.6498 O.2     1  UNL1       -0.1415
     35 O          62.3457   82.2449   14.9180 O.2     1  UNL1       -0.1415
     36 H          63.4130   81.0544   13.8602 H       1  UNL1        0.1453
     37 H          64.9359   81.7276   13.9050 H       1  UNL1        0.1453
@<TRIPOS>BOND
     1    32    33    1
     2    33    34    2
     3    33    35    2
     4    33    30    1
     5    30    29    1
     6    29    25    1
     7    25    26    2
     8    25    27   am
     9    27    24    1
    10    24    23    1
    11    23    22    1
    12    22     1    1
    13     1     2   ar
    14     2     3   ar
    15     3     4   ar
    16     4     5   ar
    17     5     6    1
    18     6     7    2
    19     7     8    1
    20     6    10    1
    21    10    12    1
    22    12    13   ar
    23    13    14   ar
    24    14    15   ar
    25    15    16    1
    26    15    17   ar
    27    17    19    1
    28    19    20    1
    29    19    21    1
    30    17    18   ar
    31     5     1   ar
    32    18    12   ar
    33    32    36    1
    34    32    37    1
    35    30    31    1
    36    27    28    1
    37     8     9    1
    38    10    11    1
@<TRIPOS>MOLECULE
*****
 37 38 0 0 0
SMALL
GASTEIGER

@<TRIPOS>ATOM
      1 C          63.7124   90.0306   13.0104 C.ar    1  UNL1        0.1762
      2 N          63.2578   88.6402   12.6781 N.ar    1  UNL1       -0.0417
      3 O          63.8244   87.7088   13.7084 O.2     1  UNL1       -0.2408
      4 N          64.6291   88.5234   14.6773 N.ar    1  UNL1       -0.0399
      5 C          64.5599   89.9584   14.2459 C.ar    1  UNL1        0.2348
      6 C          65.2220   91.1176   14.9299 C.2     1  UNL1        0.3935
      7 N          64.5305   91.8133   16.0649 N.2     1  UNL1        0.1538
      8 O          65.1926   92.9725   16.7489 O.2     1  UNL1       -0.3110
      9 H          64.7607   93.4070   17.4579 H       1  UNL1        0.3605
     10 N          66.5754   91.5812   14.4791 N.pl3   1  UNL1       -0.1943
     11 H          67.3745   91.3547   15.0075 H       1  UNL1        0.2987
     12 C          66.7112   92.3898   13.2230 C.ar    1  UNL1        0.1358
     13 C          66.0900   93.7523   13.1373 C.ar    1  UNL1        0.0424
     14 C          66.2258   94.5609   11.8812 C.ar    1  UNL1        0.0330
     15 C          66.9828   94.0069   10.7108 C.ar    1  UNL1        0.1416
     16 F          67.1187   94.8155    9.4547 F       1  UNL1       -0.2043
     17 C          67.6041   92.6442   10.7964 C.ar    1  UNL1        0.0744
     18 C          67.4683   91.8357   12.0525 C.ar    1  UNL1        0.0435
     19 C          68.3612   92.0902    9.6260 C.3     1  UNL1        0.3433
     20 F          69.6792   92.6893    9.2338 F       1  UNL1       -0.1932
     21 F          67.8002   90.9371    8.8479 F       1  UNL1       -0.1932
     22 S          63.3781   91.2747   12.2419 S.3     1  UNL1       -0.0881
     23 C          63.7033   91.3636   10.7804 C.3     1  UNL1        0.0850
     24 C          62.7211   90.8660    9.7618 C.3     1  UNL1        0.1015
     25 C          60.6782   89.3479   10.2834 C.2     1  UNL1        0.2403
     26 O          59.8344   90.5651   10.5213 O.2     1  UNL1       -0.2735
     27 N          62.1215   89.4984    9.9036 N.am    1  UNL1       -0.3023
     28 H          62.6753   88.6995    9.7475 H       1  UNL1        0.1495
     29 C          60.0786   87.9803   10.4252 C.3     1  UNL1        0.1770
     30 N          60.6792   86.9936   11.3821 N.3     1  UNL1       -0.1603
     31 H          61.1720   87.5349   12.0925 H       1  UNL1        0.1504
     32 N          62.6026   84.9180   10.3861 N.3     1  UNL1       -0.1934
     33 S          61.6409   85.9558   10.8841 S.O2    1  UNL1        0.0931
     34 O          61.9355   85.5504   12.2979 O.2     1  UNL1       -0.1415
     35 O          61.3462   86.3613    9.4703 O.2     1  UNL1       -0.1415
     36 H          62.6317   84.9426    9.3668 H       1  UNL1        0.1453
     37 H          62.2972   83.9952   10.6953 H       1  UNL1        0.1453
@<TRIPOS>BOND
     1    32    33    1
     2    33    34    2
     3    33    35    2
     4    33    30    1
     5    30    29    1
     6    29    25    1
     7    25    26    2
     8    25    27   am
     9    27    24    1
    10    24    23    1
    11    23    22    1
    12    22     1    1
    13     1     2   ar
    14     2     3   ar
    15     3     4   ar
    16     4     5   ar
    17     5     6    1
    18     6     7    2
    19     7     8    1
    20     6    10    1
    21    10    12    1
    22    12    13   ar
    23    13    14   ar
    24    14    15   ar
    25    15    16    1
    26    15    17   ar
    27    17    19    1
    28    19    20    1
    29    19    21    1
    30    17    18   ar
    31     5     1   ar
    32    18    12   ar
    33    32    36    1
    34    32    37    1
    35    30    31    1
    36    27    28    1
    37     8     9    1
    38    10    11    1
@<TRIPOS>MOLECULE
*****
 37 38 0 0 0
SMALL
GASTEIGER

@<TRIPOS>ATOM
      1 C          64.6876   90.8968   13.5102 C.ar    1  UNL1        0.1762
      2 N          64.2270   91.5830   12.2584 N.ar    1  UNL1       -0.0417
      3 O          62.9800   90.8965   11.7855 O.2     1  UNL1       -0.2408
      4 N          62.6700   89.7860   12.7451 N.ar    1  UNL1       -0.0399
      5 C          63.7253   89.7862   13.8110 C.ar    1  UNL1        0.2348
      6 C          63.8045   88.8416   14.9736 C.2     1  UNL1        0.3935
      7 N          63.0238   89.1232   16.2232 N.2     1  UNL1        0.1538
      8 O          63.1030   88.1786   17.3857 O.2     1  UNL1       -0.3110
      9 H          62.6154   88.3544   18.1663 H       1  UNL1        0.3605
     10 N          64.6643   87.6156   14.8866 N.pl3   1  UNL1       -0.1943
     11 H          65.6373   87.6864   15.0187 H       1  UNL1        0.2987
     12 C          64.0416   86.2818   14.5984 C.ar    1  UNL1        0.1358
     13 C          63.8455   85.2904   15.7068 C.ar    1  UNL1        0.0424
     14 C          63.2228   83.9565   15.4185 C.ar    1  UNL1        0.0330
     15 C          62.7963   83.6141   14.0218 C.ar    1  UNL1        0.1416
     16 F          62.1736   82.2802   13.7335 F       1  UNL1       -0.2043
     17 C          62.9924   84.6055   12.9133 C.ar    1  UNL1        0.0744
     18 C          63.6151   85.9394   13.2016 C.ar    1  UNL1        0.0435
     19 C          62.5659   84.2630   11.5166 C.3     1  UNL1        0.3433
     20 F          63.0516   82.9982   10.8729 F       1  UNL1       -0.1932
     21 F          61.6536   85.1854   10.7637 F       1  UNL1       -0.1932
     22 S          65.8981   91.2579   14.3192 S.3     1  UNL1       -0.0881
     23 C          66.0306   92.6359   14.8965 C.3     1  UNL1        0.0850
     24 C          66.5875   93.7494   14.0598 C.3     1  UNL1        0.1015
     25 C          66.1628   95.0349   11.8424 C.2     1  UNL1        0.2403
     26 O          66.1430   96.3308   12.5974 O.2     1  UNL1       -0.2735
     27 N          66.3851   93.7441   12.5736 N.am    1  UNL1       -0.3023
     28 H          66.3981   92.8936   12.0780 H       1  UNL1        0.1495
     29 C          65.9603   95.0297   10.3561 C.3     1  UNL1        0.1770
     30 N          66.3789   93.8384    9.5463 N.3     1  UNL1       -0.1603
     31 H          65.8074   93.0538    9.8597 H       1  UNL1        0.1504
     32 N          69.2312   92.9108    9.6068 N.3     1  UNL1       -0.1934
     33 S          67.8051   93.3746    9.5766 S.O2    1  UNL1        0.0931
     34 O          67.3687   92.0721   10.1791 O.2     1  UNL1       -0.1415
     35 O          68.2414   94.6772    8.9740 O.2     1  UNL1       -0.1415
     36 H          69.8343   93.6407    9.2274 H       1  UNL1        0.1453
     37 H          69.3257   92.0652    9.0443 H       1  UNL1        0.1453
@<TRIPOS>BOND
     1    32    33    1
     2    33    34    2
     3    33    35    2
     4    33    30    1
     5    30    29    1
     6    29    25    1
     7    25    26    2
     8    25    27   am
     9    27    24    1
    10    24    23    1
    11    23    22    1
    12    22     1    1
    13     1     2   ar
    14     2     3   ar
    15     3     4   ar
    16     4     5   ar
    17     5     6    1
    18     6     7    2
    19     7     8    1
    20     6    10    1
    21    10    12    1
    22    12    13   ar
    23    13    14   ar
    24    14    15   ar
    25    15    16    1
    26    15    17   ar
    27    17    19    1
    28    19    20    1
    29    19    21    1
    30    17    18   ar
    31     5     1   ar
    32    18    12   ar
    33    32    36    1
    34    32    37    1
    35    30    31    1
    36    27    28    1
    37     8     9    1
    38    10    11    1
@<TRIPOS>MOLECULE
*****
 37 38 0 0 0
SMALL
GASTEIGER

@<TRIPOS>ATOM
      1 C          66.2311   92.1859   12.3526 C.ar    1  UNL1        0.1762
      2 N          67.6581   92.2783   11.8994 N.ar    1  UNL1       -0.0417
      3 O          68.5381   91.9585   13.0713 O.2     1  UNL1       -0.2408
      4 N          67.6551   91.6686   14.2486 N.ar    1  UNL1       -0.0399
      5 C          66.2293   91.8092   13.8045 C.ar    1  UNL1        0.2348
      6 C          65.0149   91.6082   14.6617 C.2     1  UNL1        0.3935
      7 N          64.8412   92.4118   15.9164 N.2     1  UNL1        0.1538
      8 O          63.6268   92.2108   16.7736 O.2     1  UNL1       -0.3110
      9 H          63.5183   92.7127   17.5574 H       1  UNL1        0.3605
     10 N          63.9741   90.6038   14.2642 N.pl3   1  UNL1       -0.1943
     11 H          63.3957   90.7759   13.4864 H       1  UNL1        0.2987
     12 C          63.8147   89.3373   15.0519 C.ar    1  UNL1        0.1358
     13 C          63.0825   89.3553   16.3609 C.ar    1  UNL1        0.0424
     14 C          62.9230   88.0888   17.1486 C.ar    1  UNL1        0.0330
     15 C          63.4957   86.8042   16.6273 C.ar    1  UNL1        0.1416
     16 F          63.3363   85.5377   17.4150 F       1  UNL1       -0.2043
     17 C          64.2280   86.7861   15.3182 C.ar    1  UNL1        0.0744
     18 C          64.3874   88.0527   14.5305 C.ar    1  UNL1        0.0435
     19 C          64.8006   85.5016   14.7969 C.3     1  UNL1        0.3433
     20 F          63.9052   84.3207   14.5649 F       1  UNL1       -0.1932
     21 F          66.2688   85.3978   14.5075 F       1  UNL1       -0.1932
     22 S          65.0189   92.4279   11.5029 S.3     1  UNL1       -0.0881
     23 C          64.2993   91.2709   10.8759 C.3     1  UNL1        0.0850
     24 C          62.8925   91.4402   10.3836 C.3     1  UNL1        0.1015
     25 C          61.3811   89.4386   11.0614 C.2     1  UNL1        0.2403
     26 O          61.4918   89.8427   12.5016 O.2     1  UNL1       -0.2735
     27 N          62.0815   90.2374   10.0023 N.am    1  UNL1       -0.3023
     28 H          62.0088   89.9721    9.0570 H       1  UNL1        0.1495
     29 C          60.5700   88.2358   10.6801 C.3     1  UNL1        0.1770
     30 N          60.7334   86.9507   11.4363 N.3     1  UNL1       -0.1603
     31 H          61.0046   87.2010   12.3872 H       1  UNL1        0.1504
     32 N          62.6990   84.8920   10.4885 N.3     1  UNL1       -0.1934
     33 S          61.7162   85.9213   10.9624 S.O2    1  UNL1        0.0931
     34 O          61.2309   86.1059    9.5551 O.2     1  UNL1       -0.1415
     35 O          62.2014   85.7368   12.3698 O.2     1  UNL1       -0.1415
     36 H          63.2328   84.5404   11.2834 H       1  UNL1        0.1453
     37 H          63.3347   85.3149    9.8123 H       1  UNL1        0.1453
@<TRIPOS>BOND
     1    32    33    1
     2    33    34    2
     3    33    35    2
     4    33    30    1
     5    30    29    1
     6    29    25    1
     7    25    26    2
     8    25    27   am
     9    27    24    1
    10    24    23    1
    11    23    22    1
    12    22     1    1
    13     1     2   ar
    14     2     3   ar
    15     3     4   ar
    16     4     5   ar
    17     5     6    1
    18     6     7    2
    19     7     8    1
    20     6    10    1
    21    10    12    1
    22    12    13   ar
    23    13    14   ar
    24    14    15   ar
    25    15    16    1
    26    15    17   ar
    27    17    19    1
    28    19    20    1
    29    19    21    1
    30    17    18   ar
    31     5     1   ar
    32    18    12   ar
    33    32    36    1
    34    32    37    1
    35    30    31    1
    36    27    28    1
    37     8     9    1
    38    10    11    1
@<TRIPOS>MOLECULE
*****
 37 38 0 0 0
SMALL
GASTEIGER

@<TRIPOS>ATOM
      1 C          63.0677   90.0106   11.9101 C.ar    1  UNL1        0.1762
      2 N          63.9788   91.0078   11.2576 N.ar    1  UNL1       -0.0417
      3 O          63.2654   91.5782   10.0677 O.2     1  UNL1       -0.2408
      4 N          61.9136   90.9335    9.9848 N.ar    1  UNL1       -0.0399
      5 C          61.7914   89.9647   11.1234 C.ar    1  UNL1        0.2348
      6 C          60.6017   89.1015   11.4228 C.2     1  UNL1        0.3935
      7 N          59.7868   89.3496   12.6575 N.2     1  UNL1        0.1538
      8 O          58.5971   88.4865   12.9569 O.2     1  UNL1       -0.3110
      9 H          58.0880   88.6415   13.7281 H       1  UNL1        0.3605
     10 N          60.2270   87.9902   10.4877 N.pl3   1  UNL1       -0.1943
     11 H          59.3491   87.9968   10.0421 H       1  UNL1        0.2987
     12 C          61.1898   86.8689   10.2314 C.ar    1  UNL1        0.1358
     13 C          61.7549   86.6650    8.8570 C.ar    1  UNL1        0.0424
     14 C          62.7178   85.5437    8.6006 C.ar    1  UNL1        0.0330
     15 C          63.1155   84.6263    9.7187 C.ar    1  UNL1        0.1416
     16 F          64.0783   83.5050    9.4624 F       1  UNL1       -0.2043
     17 C          62.5503   84.8302   11.0932 C.ar    1  UNL1        0.0744
     18 C          61.5875   85.9515   11.3495 C.ar    1  UNL1        0.0435
     19 C          62.9480   83.9128   12.2113 C.3     1  UNL1        0.3433
     20 F          62.2907   82.5718   12.3510 F       1  UNL1       -0.1932
     21 F          64.0031   84.3364   13.1897 F       1  UNL1       -0.1932
     22 S          63.3785   89.2014   13.1343 S.3     1  UNL1       -0.0881
     23 C          63.4215   89.8630   14.4797 C.3     1  UNL1        0.0850
     24 C          64.6665   90.5686   14.9292 C.3     1  UNL1        0.1015
     25 C          66.1529   92.6759   14.6130 C.2     1  UNL1        0.2403
     26 O          66.3125   92.7866   16.1003 O.2     1  UNL1       -0.2735
     27 N          65.3299   91.5669   14.0274 N.am    1  UNL1       -0.3023
     28 H          65.2251   91.4943   13.0512 H       1  UNL1        0.1495
     29 C          66.8163   93.6742   13.7112 C.3     1  UNL1        0.1770
     30 N          66.8666   93.4313   12.2318 N.3     1  UNL1       -0.1603
     31 H          67.8488   93.4728   11.9598 H       1  UNL1        0.1504
     32 N          65.3733   95.2415   10.3628 N.3     1  UNL1       -0.1934
     33 S          66.1200   94.3364   11.2973 S.O2    1  UNL1        0.0931
     34 O          66.0785   95.3967   12.3575 O.2     1  UNL1       -0.1415
     35 O          66.1615   93.2760   10.2371 O.2     1  UNL1       -0.1415
     36 H          65.2307   94.7669    9.4713 H       1  UNL1        0.1453
     37 H          65.9127   96.0940   10.2117 H       1  UNL1        0.1453
@<TRIPOS>BOND
     1    32    33    1
     2    33    34    2
     3    33    35    2
     4    33    30    1
     5    30    29    1
     6    29    25    1
     7    25    26    2
     8    25    27   am
     9    27    24    1
    10    24    23    1
    11    23    22    1
    12    22     1    1
    13     1     2   ar
    14     2     3   ar
    15     3     4   ar
    16     4     5   ar
    17     5     6    1
    18     6     7    2
    19     7     8    1
    20     6    10    1
    21    10    12    1
    22    12    13   ar
    23    13    14   ar
    24    14    15   ar
    25    15    16    1
    26    15    17   ar
    27    17    19    1
    28    19    20    1
    29    19    21    1
    30    17    18   ar
    31     5     1   ar
    32    18    12   ar
    33    32    36    1
    34    32    37    1
    35    30    31    1
    36    27    28    1
    37     8     9    1
    38    10    11    1
@<TRIPOS>MOLECULE
*****
 37 38 0 0 0
SMALL
GASTEIGER

@<TRIPOS>ATOM
      1 C          63.9349   90.6614   13.1171 C.ar    1  UNL1        0.1762
      2 N          65.2073   91.4456   12.9906 N.ar    1  UNL1       -0.0417
      3 O          65.2247   92.0850   11.6338 O.2     1  UNL1       -0.2408
      4 N          63.9632   91.6959   10.9218 N.ar    1  UNL1       -0.0399
      5 C          63.1660   90.8161   11.8385 C.ar    1  UNL1        0.2348
      6 C          61.8338   90.1992   11.5306 C.2     1  UNL1        0.3935
      7 N          61.0390   89.5467   12.6228 N.2     1  UNL1        0.1538
      8 O          59.7069   88.9298   12.3149 O.2     1  UNL1       -0.3110
      9 H          59.2104   88.5223   12.9971 H       1  UNL1        0.3605
     10 N          61.2963   90.2348   10.1307 N.pl3   1  UNL1       -0.1943
     11 H          61.1187   91.0988    9.6934 H       1  UNL1        0.2987
     12 C          61.0295   88.9540    9.3969 C.ar    1  UNL1        0.1358
     13 C          59.8278   88.8358    8.5071 C.ar    1  UNL1        0.0424
     14 C          59.5609   87.5550    7.7734 C.ar    1  UNL1        0.0330
     15 C          60.4958   86.3925    7.9294 C.ar    1  UNL1        0.1416
     16 F          60.2290   85.1117    7.1957 F       1  UNL1       -0.2043
     17 C          61.6976   86.5107    8.8193 C.ar    1  UNL1        0.0744
     18 C          61.9645   87.7914    9.5530 C.ar    1  UNL1        0.0435
     19 C          62.6325   85.3481    8.9753 C.3     1  UNL1        0.3433
     20 F          63.1934   84.6685    7.7614 F       1  UNL1       -0.1932
     21 F          63.0066   84.8652   10.3453 F       1  UNL1       -0.1932
     22 S          63.5066   89.8627   14.3123 S.3     1  UNL1       -0.0881
     23 C          64.2665   88.6296   14.7019 C.3     1  UNL1        0.0850
     24 C          64.0402   87.3442   13.9625 C.3     1  UNL1        0.1015
     25 C          63.4279   84.8472   14.3368 C.2     1  UNL1        0.2403
     26 O          62.3066   84.9740   13.3486 O.2     1  UNL1       -0.2735
     27 N          64.2947   86.0323   14.6438 N.am    1  UNL1       -0.3023
     28 H          65.0307   85.9490   15.2924 H       1  UNL1        0.1495
     29 C          63.6824   83.5353   15.0181 C.3     1  UNL1        0.1770
     30 N          62.5841   82.5190   15.1226 N.3     1  UNL1       -0.1603
     31 H          62.6658   82.0910   16.0449 H       1  UNL1        0.1504
     32 N          62.4228   80.2752   13.1379 N.3     1  UNL1       -0.1934
     33 S          62.5034   81.3971   14.1303 S.O2    1  UNL1        0.0931
     34 O          61.0069   81.4158   14.2307 O.2     1  UNL1       -0.1415
     35 O          64.0000   81.3784   14.0299 O.2     1  UNL1       -0.1415
     36 H          63.3639   80.0088   12.8486 H       1  UNL1        0.1453
     37 H          61.8899   80.5796   12.3231 H       1  UNL1        0.1453
@<TRIPOS>BOND
     1    32    33    1
     2    33    34    2
     3    33    35    2
     4    33    30    1
     5    30    29    1
     6    29    25    1
     7    25    26    2
     8    25    27   am
     9    27    24    1
    10    24    23    1
    11    23    22    1
    12    22     1    1
    13     1     2   ar
    14     2     3   ar
    15     3     4   ar
    16     4     5   ar
    17     5     6    1
    18     6     7    2
    19     7     8    1
    20     6    10    1
    21    10    12    1
    22    12    13   ar
    23    13    14   ar
    24    14    15   ar
    25    15    16    1
    26    15    17   ar
    27    17    19    1
    28    19    20    1
    29    19    21    1
    30    17    18   ar
    31     5     1   ar
    32    18    12   ar
    33    32    36    1
    34    32    37    1
    35    30    31    1
    36    27    28    1
    37     8     9    1
    38    10    11    1
@<TRIPOS>MOLECULE
*****
 37 38 0 0 0
SMALL
GASTEIGER

@<TRIPOS>ATOM
      1 C          61.6049   89.5195   10.9611 C.ar    1  UNL1        0.1762
      2 N          61.2241   90.2009   12.2421 N.ar    1  UNL1       -0.0417
      3 O          60.1094   89.4179   12.8699 O.2     1  UNL1       -0.2408
      4 N          59.8011   88.2527   11.9770 N.ar    1  UNL1       -0.0399
      5 C          60.7254   88.3155   10.7973 C.ar    1  UNL1        0.2348
      6 C          60.7635   87.3447    9.6545 C.2     1  UNL1        0.3935
      7 N          59.4994   86.9905    8.9288 N.2     1  UNL1        0.1538
      8 O          59.5375   86.0197    7.7859 O.2     1  UNL1       -0.3110
      9 H          58.7479   85.7985    7.3326 H       1  UNL1        0.3605
     10 N          62.0657   86.7280    9.2373 N.pl3   1  UNL1       -0.1943
     11 H          62.5687   87.1053    8.4798 H       1  UNL1        0.2987
     12 C          62.6015   85.5365    9.9744 C.ar    1  UNL1        0.1358
     13 C          63.3340   84.4606    9.2289 C.ar    1  UNL1        0.0424
     14 C          63.8699   83.2691    9.9659 C.ar    1  UNL1        0.0330
     15 C          63.6732   83.1535   11.4484 C.ar    1  UNL1        0.1416
     16 F          64.2090   81.9620   12.1854 F       1  UNL1       -0.2043
     17 C          62.9406   84.2295   12.1940 C.ar    1  UNL1        0.0744
     18 C          62.4048   85.4210   11.4570 C.ar    1  UNL1        0.0435
     19 C          62.7439   84.1138   13.6765 C.3     1  UNL1        0.3433
     20 F          63.2398   85.1989   14.5857 F       1  UNL1       -0.1932
     21 F          62.0513   82.9132   14.2498 F       1  UNL1       -0.1932
     22 S          62.6769   89.9642   10.0108 S.3     1  UNL1       -0.0881
     23 C          63.0695   91.4104    9.9465 C.3     1  UNL1        0.0850
     24 C          64.3078   91.8833   10.6487 C.3     1  UNL1        0.1015
     25 C          65.6415   92.2560   12.8470 C.2     1  UNL1        0.2403
     26 O          66.7055   92.9820   12.0784 O.2     1  UNL1       -0.2735
     27 N          64.4426   91.7067   12.1321 N.am    1  UNL1       -0.3023
     28 H          63.7442   91.2302   12.6366 H       1  UNL1        0.1495
     29 C          65.7763   92.0793   14.3304 C.3     1  UNL1        0.1770
     30 N          65.3768   90.7830   14.9707 N.3     1  UNL1       -0.1603
     31 H          65.9024   90.0472   14.4988 H       1  UNL1        0.1504
     32 N          62.5002   89.9315   14.9662 N.3     1  UNL1       -0.1934
     33 S          63.9385   90.3573   14.9685 S.O2    1  UNL1        0.0931
     34 O          63.6001   91.4955   15.8849 O.2     1  UNL1       -0.1415
     35 O          64.2770   89.2190   14.0520 O.2     1  UNL1       -0.1415
     36 H          62.3911   89.1053   14.3781 H       1  UNL1        0.1453
     37 H          61.9223   90.6881   14.6002 H       1  UNL1        0.1453
@<TRIPOS>BOND
     1    32    33    1
     2    33    34    2
     3    33    35    2
     4    33    30    1
     5    30    29    1
     6    29    25    1
     7    25    26    2
     8    25    27   am
     9    27    24    1
    10    24    23    1
    11    23    22    1
    12    22     1    1
    13     1     2   ar
    14     2     3   ar
    15     3     4   ar
    16     4     5   ar
    17     5     6    1
    18     6     7    2
    19     7     8    1
    20     6    10    1
    21    10    12    1
    22    12    13   ar
    23    13    14   ar
    24    14    15   ar
    25    15    16    1
    26    15    17   ar
    27    17    19    1
    28    19    20    1
    29    19    21    1
    30    17    18   ar
    31     5     1   ar
    32    18    12   ar
    33    32    36    1
    34    32    37    1
    35    30    31    1
    36    27    28    1
    37     8     9    1
    38    10    11    1
