@<TRIPOS>MOLECULE
*****
 28 30 0 0 0
SMALL
GASTEIGER

@<TRIPOS>ATOM
      1 O          59.9695   88.0532   11.6536 O.2     1  UNL1       -0.2732
      2 C          61.2308   88.8130   11.3667 C.2     1  UNL1        0.2430
      3 N          62.4391   88.0918   10.8475 N.am    1  UNL1       -0.2972
      4 H          63.2669   88.5904   10.6593 H       1  UNL1        0.1500
      5 C          61.2835   90.2939   11.5991 C.3     1  UNL1        0.1759
      6 N          62.6008   90.9681   11.8451 N.am    1  UNL1       -0.2931
      7 C          63.3782   90.6632   13.0911 C.2     1  UNL1        0.2467
      8 O          62.8383   89.6842   14.0912 O.2     1  UNL1       -0.2701
      9 H          62.9551   91.6106   11.1887 H       1  UNL1        0.1502
     10 C          64.6953   91.3373   13.3371 C.ar    1  UNL1        0.0603
     11 C          65.6312   91.0552   14.4750 C.ar    1  UNL1        0.0120
     12 C          66.8222   91.9554   14.3296 C.ar    1  UNL1        0.0356
     13 S          66.6224   92.7938   13.1018 S.2     1  UNL1       -0.0858
     14 C          65.3080   92.4117   12.4885 C.ar    1  UNL1        0.0400
     15 C          62.3864   86.6108   10.6152 C.3     1  UNL1        0.1169
     16 C          62.7346   85.6645   11.7257 C.ar    1  UNL1       -0.0003
     17 C          63.3730   86.1828   12.9802 C.ar    1  UNL1       -0.0015
     18 C          63.7212   85.2364   14.0907 C.ar    1  UNL1        0.0111
     19 C          63.4309   83.7719   13.9467 C.ar    1  UNL1        0.0577
     20 CL         63.7791   82.8256   15.0572 Cl      1  UNL1       -0.0822
     21 C          62.7926   83.2536   12.6922 C.ar    1  UNL1        0.0111
     22 C          62.4444   84.1999   11.5817 C.ar    1  UNL1       -0.0015
     23 C          61.9855   86.0762    9.2722 C.ar    1  UNL1       -0.0003
     24 C          60.5756   86.2442    8.7885 C.ar    1  UNL1       -0.0024
     25 C          60.1747   85.7095    7.4456 C.ar    1  UNL1       -0.0003
     26 C          61.1837   85.0069    6.5864 C.ar    1  UNL1       -0.0000
     27 C          62.5936   84.8389    7.0701 C.ar    1  UNL1       -0.0003
     28 C          62.9945   85.3735    8.4130 C.ar    1  UNL1       -0.0024
@<TRIPOS>BOND
     1     1     2    2
     2     2     5    1
     3     5     6    1
     4     6     7   am
     5     7     8    2
     6     7    10    1
     7    10    11   ar
     8    11    12   ar
     9    12    13   ar
    10    13    14   ar
    11     2     3   am
    12     3    15    1
    13    15    23    1
    14    23    24   ar
    15    24    25   ar
    16    25    26   ar
    17    26    27   ar
    18    27    28   ar
    19    15    16    1
    20    16    17   ar
    21    17    18   ar
    22    18    19   ar
    23    19    20    1
    24    19    21   ar
    25    21    22   ar
    26    14    10   ar
    27    28    23   ar
    28    22    16   ar
    29     6     9    1
    30     3     4    1
@<TRIPOS>MOLECULE
*****
 28 30 0 0 0
SMALL
GASTEIGER

@<TRIPOS>ATOM
      1 O          59.9216   87.9165   11.6709 O.2     1  UNL1       -0.2732
      2 C          61.1755   88.7009   11.4207 C.2     1  UNL1        0.2430
      3 N          62.4019   88.0095   10.9030 N.am    1  UNL1       -0.2972
      4 H          63.2248   88.5243   10.7388 H       1  UNL1        0.1500
      5 C          61.2030   90.1765   11.6882 C.3     1  UNL1        0.1759
      6 N          62.4755   90.8345   12.1334 N.am    1  UNL1       -0.2931
      7 C          63.4081   91.4271   11.1189 C.2     1  UNL1        0.2467
      8 O          63.0682   91.3619    9.6594 O.2     1  UNL1       -0.2701
      9 H          62.6985   90.8773   13.0913 H       1  UNL1        0.1502
     10 C          64.6805   92.0850   11.5640 C.ar    1  UNL1        0.0603
     11 C          65.6214   92.8642   10.6936 C.ar    1  UNL1        0.0120
     12 C          66.7578   93.3400   11.5493 C.ar    1  UNL1        0.0356
     13 S          66.5192   92.8548   12.9485 S.2     1  UNL1       -0.0858
     14 C          65.2353   92.0792   12.9576 C.ar    1  UNL1        0.0400
     15 C          62.3743   86.5338   10.6354 C.3     1  UNL1        0.1169
     16 C          62.7298   85.5671   11.7258 C.ar    1  UNL1       -0.0003
     17 C          62.4723   84.1009   11.5417 C.ar    1  UNL1       -0.0015
     18 C          62.8278   83.1342   12.6322 C.ar    1  UNL1        0.0111
     19 C          63.4409   83.6337   13.9068 C.ar    1  UNL1        0.0577
     20 CL         63.7963   82.6670   14.9972 Cl      1  UNL1       -0.0822
     21 C          63.6984   85.0999   14.0909 C.ar    1  UNL1        0.0111
     22 C          63.3429   86.0666   13.0005 C.ar    1  UNL1       -0.0015
     23 C          61.9913   86.0248    9.2773 C.ar    1  UNL1       -0.0003
     24 C          63.0088   85.3288    8.4228 C.ar    1  UNL1       -0.0024
     25 C          62.6257   84.8199    7.0648 C.ar    1  UNL1       -0.0003
     26 C          61.2252   85.0070    6.5613 C.ar    1  UNL1       -0.0000
     27 C          60.2077   85.7030    7.4159 C.ar    1  UNL1       -0.0003
     28 C          60.5908   86.2119    8.7739 C.ar    1  UNL1       -0.0024
@<TRIPOS>BOND
     1     1     2    2
     2     2     5    1
     3     5     6    1
     4     6     7   am
     5     7     8    2
     6     7    10    1
     7    10    11   ar
     8    11    12   ar
     9    12    13   ar
    10    13    14   ar
    11     2     3   am
    12     3    15    1
    13    15    23    1
    14    23    24   ar
    15    24    25   ar
    16    25    26   ar
    17    26    27   ar
    18    27    28   ar
    19    15    16    1
    20    16    17   ar
    21    17    18   ar
    22    18    19   ar
    23    19    20    1
    24    19    21   ar
    25    21    22   ar
    26    14    10   ar
    27    28    23   ar
    28    22    16   ar
    29     6     9    1
    30     3     4    1
@<TRIPOS>MOLECULE
*****
 28 30 0 0 0
SMALL
GASTEIGER

@<TRIPOS>ATOM
      1 O          63.4932   88.8927   12.1067 O.2     1  UNL1       -0.2732
      2 C          62.7843   90.1908   12.3571 C.2     1  UNL1        0.2430
      3 N          63.0898   90.9862   13.5915 N.am    1  UNL1       -0.2972
      4 H          62.6245   91.8381   13.7558 H       1  UNL1        0.1500
      5 C          61.7700   90.6933   11.3729 C.3     1  UNL1        0.1759
      6 N          61.3944   89.8536   10.1880 N.am    1  UNL1       -0.2931
      7 C          60.5918   88.6011   10.3806 C.2     1  UNL1        0.2467
      8 O          60.1647   88.1884   11.7581 O.2     1  UNL1       -0.2701
      9 H          61.6747   90.1245    9.2840 H       1  UNL1        0.1502
     10 C          60.2162   87.7614    9.1958 C.ar    1  UNL1        0.0603
     11 C          59.2833   88.1617    8.0915 C.ar    1  UNL1        0.0120
     12 C          59.1981   87.0216    7.1205 C.ar    1  UNL1        0.0356
     13 S          60.0785   85.9167    7.6247 S.2     1  UNL1       -0.0858
     14 C          60.7076   86.3739    8.9073 C.ar    1  UNL1        0.0400
     15 C          64.1041   90.4836   14.5757 C.3     1  UNL1        0.1169
     16 C          65.3426   91.2838   14.8510 C.ar    1  UNL1       -0.0003
     17 C          65.4546   92.0810   16.1167 C.ar    1  UNL1       -0.0015
     18 C          66.6932   92.8812   16.3919 C.ar    1  UNL1        0.0111
     19 C          67.8196   92.8842   15.4015 C.ar    1  UNL1        0.0577
     20 CL         69.0581   93.6843   15.6768 Cl      1  UNL1       -0.0822
     21 C          67.7077   92.0870   14.1358 C.ar    1  UNL1        0.0111
     22 C          66.4692   91.2868   13.8605 C.ar    1  UNL1       -0.0015
     23 C          63.8799   89.1808   15.2846 C.ar    1  UNL1       -0.0003
     24 C          64.4176   87.9076   14.7017 C.ar    1  UNL1       -0.0024
     25 C          64.1934   86.6049   15.4106 C.ar    1  UNL1       -0.0003
     26 C          63.4314   86.5753   16.7024 C.ar    1  UNL1       -0.0000
     27 C          62.8937   87.8485   17.2852 C.ar    1  UNL1       -0.0003
     28 C          63.1179   89.1513   16.5763 C.ar    1  UNL1       -0.0024
@<TRIPOS>BOND
     1     1     2    2
     2     2     5    1
     3     5     6    1
     4     6     7   am
     5     7     8    2
     6     7    10    1
     7    10    11   ar
     8    11    12   ar
     9    12    13   ar
    10    13    14   ar
    11     2     3   am
    12     3    15    1
    13    15    23    1
    14    23    24   ar
    15    24    25   ar
    16    25    26   ar
    17    26    27   ar
    18    27    28   ar
    19    15    16    1
    20    16    17   ar
    21    17    18   ar
    22    18    19   ar
    23    19    20    1
    24    19    21   ar
    25    21    22   ar
    26    14    10   ar
    27    28    23   ar
    28    22    16   ar
    29     6     9    1
    30     3     4    1
@<TRIPOS>MOLECULE
*****
 28 30 0 0 0
SMALL
GASTEIGER

@<TRIPOS>ATOM
      1 O          59.9050   87.8703   11.6022 O.2     1  UNL1       -0.2732
      2 C          61.1577   88.6747   11.4180 C.2     1  UNL1        0.2430
      3 N          62.4316   87.9961   11.0097 N.am    1  UNL1       -0.2972
      4 H          63.2537   88.5241   10.8888 H       1  UNL1        0.1500
      5 C          61.1364   90.1577   11.6420 C.3     1  UNL1        0.1759
      6 N          62.4246   90.9151   11.7727 N.am    1  UNL1       -0.2931
      7 C          63.3495   90.6296   12.9186 C.2     1  UNL1        0.2467
      8 O          62.9861   89.5868   13.9339 O.2     1  UNL1       -0.2701
      9 H          62.6630   91.5995   11.1064 H       1  UNL1        0.1502
     10 C          64.6376   91.3869   13.0493 C.ar    1  UNL1        0.0603
     11 C          65.1822   92.3773   12.0631 C.ar    1  UNL1        0.0120
     12 C          66.4885   92.8893   12.5935 C.ar    1  UNL1        0.0356
     13 S          66.7513   92.2153   13.9076 S.2     1  UNL1       -0.0858
     14 C          65.6074   91.2868   14.1893 C.ar    1  UNL1        0.0400
     15 C          62.4529   86.5131   10.7857 C.3     1  UNL1        0.1169
     16 C          62.1589   85.9559    9.4244 C.ar    1  UNL1       -0.0003
     17 C          60.8009   86.1417    8.8152 C.ar    1  UNL1       -0.0015
     18 C          60.5070   85.5844    7.4538 C.ar    1  UNL1        0.0111
     19 C          61.5711   84.8415    6.7018 C.ar    1  UNL1        0.0577
     20 CL         61.2772   84.2844    5.3405 Cl      1  UNL1       -0.0822
     21 C          62.9292   84.6558    7.3110 C.ar    1  UNL1        0.0111
     22 C          63.2231   85.2129    8.6723 C.ar    1  UNL1       -0.0015
     23 C          62.7681   85.5872   11.9230 C.ar    1  UNL1       -0.0003
     24 C          63.4063   86.1220   13.1707 C.ar    1  UNL1       -0.0024
     25 C          63.7215   85.1962   14.3079 C.ar    1  UNL1       -0.0003
     26 C          63.3986   83.7355   14.1975 C.ar    1  UNL1       -0.0000
     27 C          62.7604   83.2007   12.9499 C.ar    1  UNL1       -0.0003
     28 C          62.4452   84.1266   11.8126 C.ar    1  UNL1       -0.0024
@<TRIPOS>BOND
     1     1     2    2
     2     2     5    1
     3     5     6    1
     4     6     7   am
     5     7     8    2
     6     7    10    1
     7    10    11   ar
     8    11    12   ar
     9    12    13   ar
    10    13    14   ar
    11     2     3   am
    12     3    15    1
    13    15    23    1
    14    23    24   ar
    15    24    25   ar
    16    25    26   ar
    17    26    27   ar
    18    27    28   ar
    19    15    16    1
    20    16    17   ar
    21    17    18   ar
    22    18    19   ar
    23    19    20    1
    24    19    21   ar
    25    21    22   ar
    26    14    10   ar
    27    28    23   ar
    28    22    16   ar
    29     6     9    1
    30     3     4    1
@<TRIPOS>MOLECULE
*****
 28 30 0 0 0
SMALL
GASTEIGER

@<TRIPOS>ATOM
      1 O          63.3908   89.6107   10.3222 O.2     1  UNL1       -0.2732
      2 C          62.6384   89.3829   11.5997 C.2     1  UNL1        0.2430
      3 N          61.7086   88.2125   11.7240 N.am    1  UNL1       -0.2972
      4 H          61.2147   88.0630   12.5625 H       1  UNL1        0.1500
      5 C          62.8158   90.3256   12.7529 C.3     1  UNL1        0.1759
      6 N          64.1755   90.8732   13.0716 N.am    1  UNL1       -0.2931
      7 C          64.5045   91.2954   14.4728 C.2     1  UNL1        0.2467
      8 O          63.4738   91.1700   15.5555 O.2     1  UNL1       -0.2701
      9 H          64.8519   90.9556   12.3610 H       1  UNL1        0.1502
     10 C          65.8641   91.8431   14.7915 C.ar    1  UNL1        0.0603
     11 C          67.0885   91.7170   13.9343 C.ar    1  UNL1        0.0120
     12 C          68.2191   92.4089   14.6363 C.ar    1  UNL1        0.0356
     13 S          67.6934   92.9627   15.9275 S.2     1  UNL1       -0.0858
     14 C          66.2379   92.6130   16.0233 C.ar    1  UNL1        0.0400
     15 C          61.5311   87.2698   10.5709 C.3     1  UNL1        0.1169
     16 C          62.2370   85.9463   10.5686 C.ar    1  UNL1       -0.0003
     17 C          62.3174   85.1370   11.8290 C.ar    1  UNL1       -0.0015
     18 C          63.0233   83.8134   11.8267 C.ar    1  UNL1        0.0111
     19 C          63.6488   83.2992   10.5640 C.ar    1  UNL1        0.0577
     20 CL         64.3547   81.9757   10.5618 Cl      1  UNL1       -0.0822
     21 C          63.5684   84.1085    9.3036 C.ar    1  UNL1        0.0111
     22 C          62.8625   85.4320    9.3059 C.ar    1  UNL1       -0.0015
     23 C          60.6477   87.6506    9.4199 C.ar    1  UNL1       -0.0003
     24 C          59.8513   86.5992    8.7058 C.ar    1  UNL1       -0.0024
     25 C          58.9680   86.9801    7.5549 C.ar    1  UNL1       -0.0003
     26 C          58.8811   88.4124    7.1181 C.ar    1  UNL1       -0.0000
     27 C          59.6775   89.4639    7.8322 C.ar    1  UNL1       -0.0003
     28 C          60.5608   89.0830    8.9831 C.ar    1  UNL1       -0.0024
@<TRIPOS>BOND
     1     1     2    2
     2     2     5    1
     3     5     6    1
     4     6     7   am
     5     7     8    2
     6     7    10    1
     7    10    11   ar
     8    11    12   ar
     9    12    13   ar
    10    13    14   ar
    11     2     3   am
    12     3    15    1
    13    15    23    1
    14    23    24   ar
    15    24    25   ar
    16    25    26   ar
    17    26    27   ar
    18    27    28   ar
    19    15    16    1
    20    16    17   ar
    21    17    18   ar
    22    18    19   ar
    23    19    20    1
    24    19    21   ar
    25    21    22   ar
    26    14    10   ar
    27    28    23   ar
    28    22    16   ar
    29     6     9    1
    30     3     4    1
@<TRIPOS>MOLECULE
*****
 28 30 0 0 0
SMALL
GASTEIGER

@<TRIPOS>ATOM
      1 O          63.5228   88.8603   12.1644 O.2     1  UNL1       -0.2732
      2 C          63.0327   90.2780   12.1647 C.2     1  UNL1        0.2430
      3 N          63.4558   91.2176   13.2546 N.am    1  UNL1       -0.2972
      4 H          63.1342   92.1481   13.2549 H       1  UNL1        0.1500
      5 C          62.1193   90.7561   11.0751 C.3     1  UNL1        0.1759
      6 N          61.6927   89.8152    9.9874 N.am    1  UNL1       -0.2931
      7 C          60.7430   88.6954   10.2943 C.2     1  UNL1        0.2467
      8 O          60.2199   88.5165   11.6887 O.2     1  UNL1       -0.2701
      9 H          62.0361   89.9326    9.0722 H       1  UNL1        0.1502
     10 C          60.3164   87.7546    9.2067 C.ar    1  UNL1        0.0603
     11 C          59.0602   87.8584    8.3936 C.ar    1  UNL1        0.0120
     12 C          59.0385   86.7127    7.4257 C.ar    1  UNL1        0.0356
     13 S          60.2813   85.9008    7.6406 S.2     1  UNL1       -0.0858
     14 C          61.0711   86.5447    8.7414 C.ar    1  UNL1        0.0400
     15 C          64.3692   90.7396   14.3443 C.3     1  UNL1        0.1169
     16 C          64.0047   89.5287   15.1510 C.ar    1  UNL1       -0.0003
     17 C          63.2080   89.6802   16.4129 C.ar    1  UNL1       -0.0015
     18 C          62.8435   88.4692   17.2196 C.ar    1  UNL1        0.0111
     19 C          63.2757   87.1069   16.7645 C.ar    1  UNL1        0.0577
     20 CL         62.9112   85.8960   17.5712 Cl      1  UNL1       -0.0822
     21 C          64.0724   86.9554   15.5026 C.ar    1  UNL1        0.0111
     22 C          64.4369   88.1663   14.6959 C.ar    1  UNL1       -0.0015
     23 C          65.6470   91.4725   14.6272 C.ar    1  UNL1       -0.0003
     24 C          65.8110   92.2247   15.9145 C.ar    1  UNL1       -0.0024
     25 C          67.0888   92.9576   16.1974 C.ar    1  UNL1       -0.0003
     26 C          68.2027   92.9383   15.1929 C.ar    1  UNL1       -0.0000
     27 C          68.0387   92.1861   13.9055 C.ar    1  UNL1       -0.0003
     28 C          66.7609   91.4532   13.6227 C.ar    1  UNL1       -0.0024
@<TRIPOS>BOND
     1     1     2    2
     2     2     5    1
     3     5     6    1
     4     6     7   am
     5     7     8    2
     6     7    10    1
     7    10    11   ar
     8    11    12   ar
     9    12    13   ar
    10    13    14   ar
    11     2     3   am
    12     3    15    1
    13    15    23    1
    14    23    24   ar
    15    24    25   ar
    16    25    26   ar
    17    26    27   ar
    18    27    28   ar
    19    15    16    1
    20    16    17   ar
    21    17    18   ar
    22    18    19   ar
    23    19    20    1
    24    19    21   ar
    25    21    22   ar
    26    14    10   ar
    27    28    23   ar
    28    22    16   ar
    29     6     9    1
    30     3     4    1
@<TRIPOS>MOLECULE
*****
 28 30 0 0 0
SMALL
GASTEIGER

@<TRIPOS>ATOM
      1 O          64.9382   84.7532   13.9118 O.2     1  UNL1       -0.2732
      2 C          63.9995   85.9209   13.9864 C.2     1  UNL1        0.2430
      3 N          62.8109   85.9871   13.0740 N.am    1  UNL1       -0.2972
      4 H          62.1948   86.7535   13.1230 H       1  UNL1        0.1500
      5 C          64.2496   87.0222   14.9736 C.3     1  UNL1        0.1759
      6 N          64.9502   88.2751   14.5379 N.am    1  UNL1       -0.2931
      7 C          64.2000   89.5727   14.4809 C.2     1  UNL1        0.2467
      8 O          62.7492   89.6176   14.8595 O.2     1  UNL1       -0.2701
      9 H          65.9024   88.2456   14.2894 H       1  UNL1        0.1502
     10 C          64.9005   90.8255   14.0453 C.ar    1  UNL1        0.0603
     11 C          65.9368   91.5744   14.8296 C.ar    1  UNL1        0.0120
     12 C          66.3645   92.7611   14.0179 C.ar    1  UNL1        0.0356
     13 S          65.5924   92.7456   12.7319 S.2     1  UNL1       -0.0858
     14 C          64.6876   91.5493   12.7489 C.ar    1  UNL1        0.0400
     15 C          62.5608   84.8857   12.0869 C.3     1  UNL1        0.1169
     16 C          62.5485   83.4572   12.5441 C.ar    1  UNL1       -0.0003
     17 C          62.0693   83.1155   13.9239 C.ar    1  UNL1       -0.0015
     18 C          62.0570   81.6869   14.3811 C.ar    1  UNL1        0.0111
     19 C          62.5238   80.6001   13.4587 C.ar    1  UNL1        0.0577
     20 CL         62.5115   79.1716   13.9160 Cl      1  UNL1       -0.0822
     21 C          63.0030   80.9419   12.0790 C.ar    1  UNL1        0.0111
     22 C          63.0153   82.3704   11.6217 C.ar    1  UNL1       -0.0015
     23 C          62.3230   85.2129   10.6424 C.ar    1  UNL1       -0.0003
     24 C          61.1350   86.0384   10.2461 C.ar    1  UNL1       -0.0024
     25 C          60.8972   86.3656    8.8017 C.ar    1  UNL1       -0.0003
     26 C          61.8475   85.8673    7.7535 C.ar    1  UNL1       -0.0000
     27 C          63.0356   85.0418    8.1498 C.ar    1  UNL1       -0.0003
     28 C          63.2733   84.7146    9.5942 C.ar    1  UNL1       -0.0024
@<TRIPOS>BOND
     1     1     2    2
     2     2     5    1
     3     5     6    1
     4     6     7   am
     5     7     8    2
     6     7    10    1
     7    10    11   ar
     8    11    12   ar
     9    12    13   ar
    10    13    14   ar
    11     2     3   am
    12     3    15    1
    13    15    23    1
    14    23    24   ar
    15    24    25   ar
    16    25    26   ar
    17    26    27   ar
    18    27    28   ar
    19    15    16    1
    20    16    17   ar
    21    17    18   ar
    22    18    19   ar
    23    19    20    1
    24    19    21   ar
    25    21    22   ar
    26    14    10   ar
    27    28    23   ar
    28    22    16   ar
    29     6     9    1
    30     3     4    1
@<TRIPOS>MOLECULE
*****
 28 30 0 0 0
SMALL
GASTEIGER

@<TRIPOS>ATOM
      1 O          62.2055   84.4709   14.4917 O.2     1  UNL1       -0.2732
      2 C          63.6791   84.6026   14.2439 C.2     1  UNL1        0.2430
      3 N          64.2510   84.2320   12.9076 N.am    1  UNL1       -0.2972
      4 H          65.2181   84.3184   12.7450 H       1  UNL1        0.1500
      5 C          64.5807   85.1048   15.3323 C.3     1  UNL1        0.1759
      6 N          64.5533   86.5537   15.7201 N.am    1  UNL1       -0.2931
      7 C          64.1786   87.5942   14.7068 C.2     1  UNL1        0.2467
      8 O          63.8314   87.1860   13.3057 O.2     1  UNL1       -0.2701
      9 H          64.7811   86.8216   16.6396 H       1  UNL1        0.1502
     10 C          64.1512   89.0430   15.0944 C.ar    1  UNL1        0.0603
     11 C          63.3476   89.6420   16.2105 C.ar    1  UNL1        0.0120
     12 C          63.6222   91.1163   16.2399 C.ar    1  UNL1        0.0356
     13 S          64.5956   91.4285   15.1420 S.2     1  UNL1       -0.0858
     14 C          64.9224   90.1471   14.4341 C.ar    1  UNL1        0.0400
     15 C          63.3494   83.7297   11.8191 C.3     1  UNL1        0.1169
     16 C          62.6813   84.7004   10.8910 C.ar    1  UNL1       -0.0003
     17 C          63.0920   84.7639    9.4498 C.ar    1  UNL1       -0.0015
     18 C          62.4239   85.7347    8.5216 C.ar    1  UNL1        0.0111
     19 C          61.3451   86.6418    9.0348 C.ar    1  UNL1        0.0577
     20 CL         60.6771   87.6125    8.1067 Cl      1  UNL1       -0.0822
     21 C          60.9344   86.5782   10.4761 C.ar    1  UNL1        0.0111
     22 C          61.6025   85.6075   11.4042 C.ar    1  UNL1       -0.0015
     23 C          63.1158   82.2566   11.6588 C.ar    1  UNL1       -0.0003
     24 C          62.6718   81.4355   12.8329 C.ar    1  UNL1       -0.0024
     25 C          62.4383   79.9625   12.6725 C.ar    1  UNL1       -0.0003
     26 C          62.6488   79.3107   11.3380 C.ar    1  UNL1       -0.0000
     27 C          63.0927   80.1318   10.1639 C.ar    1  UNL1       -0.0003
     28 C          63.3263   81.6048   10.3243 C.ar    1  UNL1       -0.0024
@<TRIPOS>BOND
     1     1     2    2
     2     2     5    1
     3     5     6    1
     4     6     7   am
     5     7     8    2
     6     7    10    1
     7    10    11   ar
     8    11    12   ar
     9    12    13   ar
    10    13    14   ar
    11     2     3   am
    12     3    15    1
    13    15    23    1
    14    23    24   ar
    15    24    25   ar
    16    25    26   ar
    17    26    27   ar
    18    27    28   ar
    19    15    16    1
    20    16    17   ar
    21    17    18   ar
    22    18    19   ar
    23    19    20    1
    24    19    21   ar
    25    21    22   ar
    26    14    10   ar
    27    28    23   ar
    28    22    16   ar
    29     6     9    1
    30     3     4    1
@<TRIPOS>MOLECULE
*****
 28 30 0 0 0
SMALL
GASTEIGER

@<TRIPOS>ATOM
      1 O          63.0223   89.6642   10.0214 O.2     1  UNL1       -0.2732
      2 C          63.1613   90.0283   11.4700 C.2     1  UNL1        0.2430
      3 N          63.0304   88.9704   12.5252 N.am    1  UNL1       -0.2972
      4 H          63.1217   89.2094   13.4758 H       1  UNL1        0.1500
      5 C          63.4313   91.4505   11.8632 C.3     1  UNL1        0.1759
      6 N          64.7463   91.8206   12.4828 N.am    1  UNL1       -0.2931
      7 C          64.9470   91.6710   13.9618 C.2     1  UNL1        0.2467
      8 O          63.8328   91.1513   14.8211 O.2     1  UNL1       -0.2701
      9 H          65.4776   92.1617   11.9188 H       1  UNL1        0.1502
     10 C          66.2620   92.0411   14.5814 C.ar    1  UNL1        0.0603
     11 C          66.4628   92.5842   15.9651 C.ar    1  UNL1        0.0120
     12 C          67.9319   92.8119   16.1650 C.ar    1  UNL1        0.0356
     13 S          68.6390   92.4094   14.9048 S.2     1  UNL1       -0.0858
     14 C          67.6069   91.9330   13.9261 C.ar    1  UNL1        0.0400
     15 C          62.7605   87.5482   12.1319 C.3     1  UNL1        0.1169
     16 C          61.8844   87.2498   10.9515 C.ar    1  UNL1       -0.0003
     17 C          60.4713   87.7521   10.9203 C.ar    1  UNL1       -0.0015
     18 C          59.5952   87.4537    9.7398 C.ar    1  UNL1        0.0111
     19 C          60.1322   86.6530    8.5907 C.ar    1  UNL1        0.0577
     20 CL         59.2561   86.3547    7.4103 Cl      1  UNL1       -0.0822
     21 C          61.5452   86.1507    8.6219 C.ar    1  UNL1        0.0111
     22 C          62.4213   86.4491    9.8023 C.ar    1  UNL1       -0.0015
     23 C          63.3667   86.4244   12.9192 C.ar    1  UNL1       -0.0003
     24 C          63.1180   85.0028   12.5104 C.ar    1  UNL1       -0.0024
     25 C          63.7242   83.8791   13.2976 C.ar    1  UNL1       -0.0003
     26 C          64.5791   84.1770   14.4936 C.ar    1  UNL1       -0.0000
     27 C          64.8278   85.5986   14.9024 C.ar    1  UNL1       -0.0003
     28 C          64.2216   86.7223   14.1151 C.ar    1  UNL1       -0.0024
@<TRIPOS>BOND
     1     1     2    2
     2     2     5    1
     3     5     6    1
     4     6     7   am
     5     7     8    2
     6     7    10    1
     7    10    11   ar
     8    11    12   ar
     9    12    13   ar
    10    13    14   ar
    11     2     3   am
    12     3    15    1
    13    15    23    1
    14    23    24   ar
    15    24    25   ar
    16    25    26   ar
    17    26    27   ar
    18    27    28   ar
    19    15    16    1
    20    16    17   ar
    21    17    18   ar
    22    18    19   ar
    23    19    20    1
    24    19    21   ar
    25    21    22   ar
    26    14    10   ar
    27    28    23   ar
    28    22    16   ar
    29     6     9    1
    30     3     4    1
