@<TRIPOS>MOLECULE
*****
 27 30 0 0 0
SMALL
GASTEIGER

@<TRIPOS>ATOM
      1 C          61.4097   88.1381   10.8139 C.2     1  UNL1       -0.0246
      2 C          62.1740   86.8893   11.1404 C.2     1  UNL1       -0.0421
      3 C          61.9349   85.8986   10.0399 C.3     1  UNL1        0.0480
      4 C          61.0229   86.5349    9.0333 C.ar    1  UNL1       -0.0184
      5 C          60.4460   86.0328    7.7429 C.ar    1  UNL1       -0.0040
      6 C          59.5447   86.9149    6.9309 C.ar    1  UNL1       -0.0003
      7 C          59.2201   88.2990    7.4093 C.ar    1  UNL1       -0.0000
      8 C          59.7969   88.8011    8.6997 C.ar    1  UNL1       -0.0006
      9 C          60.6983   87.9190    9.5117 C.ar    1  UNL1       -0.0079
     10 C          60.1046   89.7625   12.3658 C.3     1  UNL1        0.0111
     11 C          61.3647   89.3867   11.6440 C.3     1  UNL1        0.0634
     12 C          62.5797   90.2595   11.7523 C.ar    1  UNL1        0.0818
     13 C          63.0852   90.9945   10.5463 C.ar    1  UNL1        0.1139
     14 N          64.3003   91.8673   10.6547 N.ar    1  UNL1       -0.2394
     15 C          65.0099   92.0052   11.9690 C.ar    1  UNL1        0.1195
     16 C          64.5045   91.2703   13.1750 C.ar    1  UNL1        0.1191
     17 N          63.2894   90.3975   13.0666 N.ar    1  UNL1       -0.2446
     18 C          63.0274   86.6700   12.3543 C.3     1  UNL1        0.0394
     19 C          63.2175   85.2846   12.8970 C.3     1  UNL1        0.0768
     20 N          64.0010   85.0744   14.1587 N.3     1  UNL1       -0.2670
     21 C          64.5624   86.2526   14.8981 C.3     1  UNL1        0.0899
     22 C          64.2232   83.6859   14.6811 C.3     1  UNL1        0.1057
     23 C          63.3795   82.5518   14.1790 C.ar    1  UNL1        0.0234
     24 C          61.9672   82.2553   14.5880 C.ar    1  UNL1        0.0041
     25 C          61.5149   81.0353   13.8416 C.ar    1  UNL1        0.0072
     26 C          62.6477   80.5778   12.9713 C.ar    1  UNL1        0.0352
     27 S          63.8001   81.5151   13.1799 S.2     1  UNL1       -0.0894
@<TRIPOS>BOND
     1    11    10    1
     2    11     1    1
     3     1     2    2
     4     2    18    1
     5    18    19    1
     6    19    20    1
     7    20    21    1
     8    20    22    1
     9    22    23    1
    10    23    24   ar
    11    24    25   ar
    12    25    26   ar
    13    26    27   ar
    14     2     3    1
    15     3     4    1
    16     4     5   ar
    17     5     6   ar
    18     6     7   ar
    19     7     8   ar
    20     8     9   ar
    21    11    12    1
    22    12    13   ar
    23    13    14   ar
    24    14    15   ar
    25    15    16   ar
    26    16    17   ar
    27     9     1    1
    28    17    12   ar
    29    27    23   ar
    30     9     4   ar
@<TRIPOS>MOLECULE
*****
 27 30 0 0 0
SMALL
GASTEIGER

@<TRIPOS>ATOM
      1 C          63.6714   89.0273   13.5178 C.2     1  UNL1       -0.0246
      2 C          63.9250   87.5588   13.6886 C.2     1  UNL1       -0.0421
      3 C          63.3153   86.8441   12.5192 C.3     1  UNL1        0.0480
      4 C          62.6849   87.8708   11.6257 C.ar    1  UNL1       -0.0184
      5 C          61.9389   87.7514   10.3299 C.ar    1  UNL1       -0.0040
      6 C          61.4130   88.9813    9.6512 C.ar    1  UNL1       -0.0003
      7 C          61.6330   90.3307   10.2683 C.ar    1  UNL1       -0.0000
      8 C          62.3790   90.4501   11.5642 C.ar    1  UNL1       -0.0006
      9 C          62.9049   89.2202   12.2428 C.ar    1  UNL1       -0.0079
     10 C          63.5427   90.1748   15.8453 C.3     1  UNL1        0.0111
     11 C          64.1076   90.1125   14.4570 C.3     1  UNL1        0.0634
     12 C          65.1085   91.1354   14.0081 C.ar    1  UNL1        0.0818
     13 C          66.4622   91.1931   14.6516 C.ar    1  UNL1        0.1139
     14 N          67.4632   92.2161   14.2026 N.ar    1  UNL1       -0.2394
     15 C          67.1105   93.1814   13.1101 C.ar    1  UNL1        0.1195
     16 C          65.7568   93.1239   12.4665 C.ar    1  UNL1        0.1191
     17 N          64.7558   92.1009   12.9155 N.ar    1  UNL1       -0.2446
     18 C          64.6594   86.9177   14.8286 C.3     1  UNL1        0.0394
     19 C          63.9601   85.9219   15.7058 C.3     1  UNL1        0.0768
     20 N          63.5157   84.6057   15.1400 N.3     1  UNL1       -0.2670
     21 C          62.0949   84.1566   15.3126 C.3     1  UNL1        0.0899
     22 C          64.4919   83.7387   14.4017 C.3     1  UNL1        0.1057
     23 C          64.0367   82.9351   13.2198 C.ar    1  UNL1        0.0234
     24 C          64.1585   83.3379   11.7800 C.ar    1  UNL1        0.0041
     25 C          63.5768   82.2393   10.9405 C.ar    1  UNL1        0.0072
     26 C          63.0955   81.1576   11.8614 C.ar    1  UNL1        0.0352
     27 S          63.3797   81.5876   13.2700 S.2     1  UNL1       -0.0894
@<TRIPOS>BOND
     1    11    10    1
     2    11     1    1
     3     1     2    2
     4     2    18    1
     5    18    19    1
     6    19    20    1
     7    20    21    1
     8    20    22    1
     9    22    23    1
    10    23    24   ar
    11    24    25   ar
    12    25    26   ar
    13    26    27   ar
    14     2     3    1
    15     3     4    1
    16     4     5   ar
    17     5     6   ar
    18     6     7   ar
    19     7     8   ar
    20     8     9   ar
    21    11    12    1
    22    12    13   ar
    23    13    14   ar
    24    14    15   ar
    25    15    16   ar
    26    16    17   ar
    27     9     1    1
    28    17    12   ar
    29    27    23   ar
    30     9     4   ar
@<TRIPOS>MOLECULE
*****
 27 30 0 0 0
SMALL
GASTEIGER

@<TRIPOS>ATOM
      1 C          62.9619   85.3011   12.0050 C.2     1  UNL1       -0.0246
      2 C          63.4965   86.0367   13.1979 C.2     1  UNL1       -0.0421
      3 C          63.8198   85.0266   14.2587 C.3     1  UNL1        0.0480
      4 C          63.4850   83.6667   13.7213 C.ar    1  UNL1       -0.0184
      5 C          63.5945   82.2959   14.3203 C.ar    1  UNL1       -0.0040
      6 C          63.1737   81.0948   13.5265 C.ar    1  UNL1       -0.0003
      7 C          62.6435   81.2645   12.1337 C.ar    1  UNL1       -0.0000
      8 C          62.5340   82.6352   11.5346 C.ar    1  UNL1       -0.0006
      9 C          62.9548   83.8364   12.3284 C.ar    1  UNL1       -0.0079
     10 C          62.8176   85.2443    9.4115 C.3     1  UNL1        0.0111
     11 C          62.5131   85.9213   10.7151 C.3     1  UNL1        0.0634
     12 C          61.7600   87.2184   10.7285 C.ar    1  UNL1        0.0818
     13 C          62.2518   88.3797    9.9164 C.ar    1  UNL1        0.1139
     14 N          61.4985   89.6768    9.9299 N.ar    1  UNL1       -0.2394
     15 C          60.2536   89.8126   10.7555 C.ar    1  UNL1        0.1195
     16 C          59.7618   88.6513   11.5676 C.ar    1  UNL1        0.1191
     17 N          60.5150   87.3542   11.5541 N.ar    1  UNL1       -0.2446
     18 C          63.6762   87.5216   13.3104 C.3     1  UNL1        0.0394
     19 C          64.2255   88.1171   14.5728 C.3     1  UNL1        0.0768
     20 N          63.6683   89.4070   15.0979 N.3     1  UNL1       -0.2670
     21 C          63.1528   89.4839   16.5045 C.3     1  UNL1        0.0899
     22 C          63.6265   90.6200   14.2164 C.3     1  UNL1        0.1057
     23 C          64.9037   91.2759   13.7822 C.ar    1  UNL1        0.0234
     24 C          66.2119   91.2298   14.5147 C.ar    1  UNL1        0.0041
     25 C          67.2136   92.0186   13.7245 C.ar    1  UNL1        0.0072
     26 C          66.5245   92.5521   12.5036 C.ar    1  UNL1        0.0352
     27 S          65.0969   92.0931   12.5393 S.2     1  UNL1       -0.0894
@<TRIPOS>BOND
     1    11    10    1
     2    11     1    1
     3     1     2    2
     4     2    18    1
     5    18    19    1
     6    19    20    1
     7    20    21    1
     8    20    22    1
     9    22    23    1
    10    23    24   ar
    11    24    25   ar
    12    25    26   ar
    13    26    27   ar
    14     2     3    1
    15     3     4    1
    16     4     5   ar
    17     5     6   ar
    18     6     7   ar
    19     7     8   ar
    20     8     9   ar
    21    11    12    1
    22    12    13   ar
    23    13    14   ar
    24    14    15   ar
    25    15    16   ar
    26    16    17   ar
    27     9     1    1
    28    17    12   ar
    29    27    23   ar
    30     9     4   ar
@<TRIPOS>MOLECULE
*****
 27 30 0 0 0
SMALL
GASTEIGER

@<TRIPOS>ATOM
      1 C          63.2224   88.5319   12.2985 C.2     1  UNL1       -0.0246
      2 C          63.8429   89.3780   13.3705 C.2     1  UNL1       -0.0421
      3 C          64.3051   88.4679   14.4697 C.3     1  UNL1        0.0480
      4 C          63.9701   87.0595   14.0770 C.ar    1  UNL1       -0.0184
      5 C          64.1880   85.7461   14.7680 C.ar    1  UNL1       -0.0040
      6 C          63.7368   84.4723   14.1171 C.ar    1  UNL1       -0.0003
      7 C          63.0676   84.5119   12.7752 C.ar    1  UNL1       -0.0000
      8 C          62.8498   85.8252   12.0842 C.ar    1  UNL1       -0.0006
      9 C          63.3010   87.0990   12.7351 C.ar    1  UNL1       -0.0079
     10 C          62.8620   90.4478   10.5809 C.3     1  UNL1        0.0111
     11 C          62.6277   89.0311   11.0151 C.3     1  UNL1        0.0634
     12 C          61.7987   88.1139   10.1658 C.ar    1  UNL1        0.0818
     13 C          60.3025   88.2188   10.1882 C.ar    1  UNL1        0.1139
     14 N          59.4736   87.3014    9.3389 N.ar    1  UNL1       -0.2394
     15 C          60.1407   86.2792    8.4672 C.ar    1  UNL1        0.1195
     16 C          61.6369   86.1743    8.4447 C.ar    1  UNL1        0.1191
     17 N          62.4659   87.0916    9.2940 N.ar    1  UNL1       -0.2446
     18 C          63.9777   90.8717   13.3473 C.3     1  UNL1        0.0394
     19 C          65.2608   91.5158   13.7816 C.3     1  UNL1        0.0768
     20 N          65.7439   92.7608   13.0984 N.3     1  UNL1       -0.2670
     21 C          66.5405   93.7754   13.8639 C.3     1  UNL1        0.0899
     22 C          65.4303   92.9912   11.6498 C.3     1  UNL1        0.1057
     23 C          66.5398   93.2505   10.6743 C.ar    1  UNL1        0.0234
     24 C          67.5677   92.2556   10.2231 C.ar    1  UNL1        0.0041
     25 C          68.4794   92.9405    9.2486 C.ar    1  UNL1        0.0072
     26 C          68.0150   94.3588    9.0974 C.ar    1  UNL1        0.0352
     27 S          66.8162   94.5504    9.9785 S.2     1  UNL1       -0.0894
@<TRIPOS>BOND
     1    11    10    1
     2    11     1    1
     3     1     2    2
     4     2    18    1
     5    18    19    1
     6    19    20    1
     7    20    21    1
     8    20    22    1
     9    22    23    1
    10    23    24   ar
    11    24    25   ar
    12    25    26   ar
    13    26    27   ar
    14     2     3    1
    15     3     4    1
    16     4     5   ar
    17     5     6   ar
    18     6     7   ar
    19     7     8   ar
    20     8     9   ar
    21    11    12    1
    22    12    13   ar
    23    13    14   ar
    24    14    15   ar
    25    15    16   ar
    26    16    17   ar
    27     9     1    1
    28    17    12   ar
    29    27    23   ar
    30     9     4   ar
@<TRIPOS>MOLECULE
*****
 27 30 0 0 0
SMALL
GASTEIGER

@<TRIPOS>ATOM
      1 C          63.7841   90.5564   13.7086 C.2     1  UNL1       -0.0246
      2 C          62.7884   90.2898   12.6189 C.2     1  UNL1       -0.0421
      3 C          63.2733   90.9680   11.3720 C.3     1  UNL1        0.0480
      4 C          64.5686   91.6537   11.6910 C.ar    1  UNL1       -0.0184
      5 C          65.5014   92.4769   10.8530 C.ar    1  UNL1       -0.0040
      6 C          66.7500   93.0457   11.4593 C.ar    1  UNL1       -0.0003
      7 C          67.0657   92.7914   12.9034 C.ar    1  UNL1       -0.0000
      8 C          66.1329   91.9682   13.7414 C.ar    1  UNL1       -0.0006
      9 C          64.8844   91.3994   13.1351 C.ar    1  UNL1       -0.0079
     10 C          63.6004   91.0486   16.2531 C.3     1  UNL1        0.0111
     11 C          63.6952   90.0661   15.1235 C.3     1  UNL1        0.0634
     12 C          63.7011   88.5936   15.4088 C.ar    1  UNL1        0.0818
     13 C          63.1001   88.0737   16.6810 C.ar    1  UNL1        0.1139
     14 N          63.1060   86.6011   16.9662 N.ar    1  UNL1       -0.2394
     15 C          63.7129   85.6483   15.9794 C.ar    1  UNL1        0.1195
     16 C          64.3139   86.1682   14.7071 C.ar    1  UNL1        0.1191
     17 N          64.3080   87.6408   14.4218 N.ar    1  UNL1       -0.2446
     18 C          61.5290   89.4861   12.7527 C.3     1  UNL1        0.0394
     19 C          60.3759   89.7391   11.8273 C.3     1  UNL1        0.0768
     20 N          60.2692   88.9810   10.5373 N.3     1  UNL1       -0.2670
     21 C          60.2220   89.7218    9.2338 C.3     1  UNL1        0.0899
     22 C          60.2097   87.4823   10.5508 C.3     1  UNL1        0.1057
     23 C          60.9646   86.6924    9.5231 C.ar    1  UNL1        0.0234
     24 C          62.3812   86.2142    9.6442 C.ar    1  UNL1        0.0041
     25 C          62.7275   85.4683    8.3898 C.ar    1  UNL1        0.0072
     26 C          61.5250   85.4855    7.4933 C.ar    1  UNL1        0.0352
     27 S          60.4355   86.2421    8.1937 S.2     1  UNL1       -0.0894
@<TRIPOS>BOND
     1    11    10    1
     2    11     1    1
     3     1     2    2
     4     2    18    1
     5    18    19    1
     6    19    20    1
     7    20    21    1
     8    20    22    1
     9    22    23    1
    10    23    24   ar
    11    24    25   ar
    12    25    26   ar
    13    26    27   ar
    14     2     3    1
    15     3     4    1
    16     4     5   ar
    17     5     6   ar
    18     6     7   ar
    19     7     8   ar
    20     8     9   ar
    21    11    12    1
    22    12    13   ar
    23    13    14   ar
    24    14    15   ar
    25    15    16   ar
    26    16    17   ar
    27     9     1    1
    28    17    12   ar
    29    27    23   ar
    30     9     4   ar
@<TRIPOS>MOLECULE
*****
 27 30 0 0 0
SMALL
GASTEIGER

@<TRIPOS>ATOM
      1 C          62.8669   86.1994   12.0408 C.2     1  UNL1       -0.0246
      2 C          63.5482   87.0594   13.0636 C.2     1  UNL1       -0.0421
      3 C          64.1333   86.1589   14.1108 C.3     1  UNL1        0.0480
      4 C          63.8136   84.7423   13.7353 C.ar    1  UNL1       -0.0184
      5 C          64.1341   83.4329   14.3930 C.ar    1  UNL1       -0.0040
      6 C          63.6718   82.1484   13.7714 C.ar    1  UNL1       -0.0003
      7 C          62.8891   82.1734   12.4921 C.ar    1  UNL1       -0.0000
      8 C          62.5686   83.4829   11.8344 C.ar    1  UNL1       -0.0006
      9 C          63.0309   84.7673   12.4560 C.ar    1  UNL1       -0.0079
     10 C          62.2403   85.9123    9.5358 C.3     1  UNL1        0.0111
     11 C          62.1477   86.6859   10.8176 C.3     1  UNL1        0.0634
     12 C          61.3361   87.9459   10.8762 C.ar    1  UNL1        0.0818
     13 C          61.6706   89.0962    9.9735 C.ar    1  UNL1        0.1139
     14 N          60.8589   90.3562   10.0321 N.ar    1  UNL1       -0.2394
     15 C          59.7127   90.4660   10.9934 C.ar    1  UNL1        0.1195
     16 C          59.3782   89.3158   11.8962 C.ar    1  UNL1        0.1191
     17 N          60.1899   88.0557   11.8376 N.ar    1  UNL1       -0.2446
     18 C          63.6301   88.5571   13.0427 C.3     1  UNL1        0.0394
     19 C          64.3721   89.2828   14.1256 C.3     1  UNL1        0.0768
     20 N          64.5930   90.7627   14.0213 N.3     1  UNL1       -0.2670
     21 C          64.3034   91.4754   12.7335 C.3     1  UNL1        0.0899
     22 C          65.1035   91.5301   15.2048 C.3     1  UNL1        0.1057
     23 C          66.5137   92.0409   15.2158 C.ar    1  UNL1        0.0234
     24 C          67.1660   92.8051   16.3297 C.ar    1  UNL1        0.0041
     25 C          68.5748   93.1137   15.9173 C.ar    1  UNL1        0.0072
     26 C          68.7932   92.5404   14.5485 C.ar    1  UNL1        0.0352
     27 S          67.5194   91.8774   14.1150 S.2     1  UNL1       -0.0894
@<TRIPOS>BOND
     1    11    10    1
     2    11     1    1
     3     1     2    2
     4     2    18    1
     5    18    19    1
     6    19    20    1
     7    20    21    1
     8    20    22    1
     9    22    23    1
    10    23    24   ar
    11    24    25   ar
    12    25    26   ar
    13    26    27   ar
    14     2     3    1
    15     3     4    1
    16     4     5   ar
    17     5     6   ar
    18     6     7   ar
    19     7     8   ar
    20     8     9   ar
    21    11    12    1
    22    12    13   ar
    23    13    14   ar
    24    14    15   ar
    25    15    16   ar
    26    16    17   ar
    27     9     1    1
    28    17    12   ar
    29    27    23   ar
    30     9     4   ar
@<TRIPOS>MOLECULE
*****
 27 30 0 0 0
SMALL
GASTEIGER

@<TRIPOS>ATOM
      1 C          64.7661   91.6830   12.5587 C.2     1  UNL1       -0.0246
      2 C          63.9314   90.6167   13.2040 C.2     1  UNL1       -0.0421
      3 C          64.3162   90.5398   14.6518 C.3     1  UNL1        0.0480
      4 C          65.3886   91.5585   14.9012 C.ar    1  UNL1       -0.0184
      5 C          66.1478   91.9340   16.1392 C.ar    1  UNL1       -0.0040
      6 C          67.1851   93.0160   16.0834 C.ar    1  UNL1       -0.0003
      7 C          67.4632   93.7225   14.7898 C.ar    1  UNL1       -0.0000
      8 C          66.7040   93.3470   13.5519 C.ar    1  UNL1       -0.0006
      9 C          65.6667   92.2650   13.6076 C.ar    1  UNL1       -0.0079
     10 C          63.6130   91.5811   10.2327 C.3     1  UNL1        0.0111
     11 C          64.7101   92.0949   11.1174 C.3     1  UNL1        0.0634
     12 C          65.7509   93.0204   10.5609 C.ar    1  UNL1        0.0818
     13 C          67.0881   92.4824   10.1454 C.ar    1  UNL1        0.1139
     14 N          68.1289   93.4080    9.5889 N.ar    1  UNL1       -0.2394
     15 C          67.8327   94.8717    9.4476 C.ar    1  UNL1        0.1195
     16 C          66.4955   95.4098    9.8630 C.ar    1  UNL1        0.1191
     17 N          65.4547   94.4841   10.4196 N.ar    1  UNL1       -0.2446
     18 C          62.8942   89.7752   12.5215 C.3     1  UNL1        0.0394
     19 C          63.1480   88.3155   12.2871 C.3     1  UNL1        0.0768
     20 N          62.3339   87.5658   11.2747 N.3     1  UNL1       -0.2670
     21 C          62.0405   88.1854    9.9405 C.3     1  UNL1        0.0899
     22 C          61.8131   86.1964   11.5964 C.3     1  UNL1        0.1057
     23 C          62.7649   85.0452   11.7342 C.ar    1  UNL1        0.0234
     24 C          63.2571   84.1700   10.6199 C.ar    1  UNL1        0.0041
     25 C          64.1880   83.1510   11.2075 C.ar    1  UNL1        0.0072
     26 C          64.2710   83.3965   12.6849 C.ar    1  UNL1        0.0352
     27 S          63.3915   84.5672   13.0104 S.2     1  UNL1       -0.0894
@<TRIPOS>BOND
     1    11    10    1
     2    11     1    1
     3     1     2    2
     4     2    18    1
     5    18    19    1
     6    19    20    1
     7    20    21    1
     8    20    22    1
     9    22    23    1
    10    23    24   ar
    11    24    25   ar
    12    25    26   ar
    13    26    27   ar
    14     2     3    1
    15     3     4    1
    16     4     5   ar
    17     5     6   ar
    18     6     7   ar
    19     7     8   ar
    20     8     9   ar
    21    11    12    1
    22    12    13   ar
    23    13    14   ar
    24    14    15   ar
    25    15    16   ar
    26    16    17   ar
    27     9     1    1
    28    17    12   ar
    29    27    23   ar
    30     9     4   ar
@<TRIPOS>MOLECULE
*****
 27 30 0 0 0
SMALL
GASTEIGER

@<TRIPOS>ATOM
      1 C          64.7997   91.6515   12.3802 C.2     1  UNL1       -0.0246
      2 C          64.0621   90.4748   12.9470 C.2     1  UNL1       -0.0421
      3 C          64.4313   90.3503   14.3955 C.3     1  UNL1        0.0480
      4 C          65.3971   91.4501   14.7239 C.ar    1  UNL1       -0.0184
      5 C          66.0987   91.8231   15.9961 C.ar    1  UNL1       -0.0040
      6 C          67.0279   93.0003   16.0228 C.ar    1  UNL1       -0.0003
      7 C          67.2555   93.8044   14.7772 C.ar    1  UNL1       -0.0000
      8 C          66.5540   93.4314   13.5050 C.ar    1  UNL1       -0.0006
      9 C          65.6248   92.2542   13.4783 C.ar    1  UNL1       -0.0079
     10 C          63.6148   91.6764   10.0681 C.3     1  UNL1        0.0111
     11 C          64.7253   92.1397   10.9638 C.3     1  UNL1        0.0634
     12 C          65.7613   93.0912   10.4430 C.ar    1  UNL1        0.0818
     13 C          67.1071   92.5786   10.0234 C.ar    1  UNL1        0.1139
     14 N          68.1431   93.5302    9.5026 N.ar    1  UNL1       -0.2394
     15 C          67.8334   94.9943    9.4015 C.ar    1  UNL1        0.1195
     16 C          66.4876   95.5070    9.8211 C.ar    1  UNL1        0.1191
     17 N          65.4516   94.5554   10.3419 N.ar    1  UNL1       -0.2446
     18 C          63.1206   89.5797   12.1971 C.3     1  UNL1        0.0394
     19 C          61.6392   89.7857   12.3110 C.3     1  UNL1        0.0768
     20 N          60.7253   89.2667   11.2407 N.3     1  UNL1       -0.2670
     21 C          60.1628   90.2054   10.2147 C.3     1  UNL1        0.0899
     22 C          60.3740   87.8092   11.1963 C.3     1  UNL1        0.1057
     23 C          61.3030   86.8334   10.5368 C.ar    1  UNL1        0.0234
     24 C          61.7479   86.8695    9.1048 C.ar    1  UNL1        0.0041
     25 C          62.6701   85.7087    8.8765 C.ar    1  UNL1        0.0072
     26 C          62.7952   84.9552   10.1675 C.ar    1  UNL1        0.0352
     27 S          61.9503   85.6504   11.1936 S.2     1  UNL1       -0.0894
@<TRIPOS>BOND
     1    11    10    1
     2    11     1    1
     3     1     2    2
     4     2    18    1
     5    18    19    1
     6    19    20    1
     7    20    21    1
     8    20    22    1
     9    22    23    1
    10    23    24   ar
    11    24    25   ar
    12    25    26   ar
    13    26    27   ar
    14     2     3    1
    15     3     4    1
    16     4     5   ar
    17     5     6   ar
    18     6     7   ar
    19     7     8   ar
    20     8     9   ar
    21    11    12    1
    22    12    13   ar
    23    13    14   ar
    24    14    15   ar
    25    15    16   ar
    26    16    17   ar
    27     9     1    1
    28    17    12   ar
    29    27    23   ar
    30     9     4   ar
@<TRIPOS>MOLECULE
*****
 27 30 0 0 0
SMALL
GASTEIGER

@<TRIPOS>ATOM
      1 C          63.3457   87.5325   12.7659 C.2     1  UNL1       -0.0246
      2 C          63.5391   89.0169   12.6706 C.2     1  UNL1       -0.0421
      3 C          62.8528   89.4948   11.4254 C.3     1  UNL1        0.0480
      4 C          62.2352   88.3057   10.7510 C.ar    1  UNL1       -0.0184
      5 C          61.4349   88.1706    9.4896 C.ar    1  UNL1       -0.0040
      6 C          60.9392   86.8227    9.0568 C.ar    1  UNL1       -0.0003
      7 C          61.2438   85.6099    9.8853 C.ar    1  UNL1       -0.0000
      8 C          62.0441   85.7450   11.1467 C.ar    1  UNL1       -0.0006
      9 C          62.5399   87.0929   11.5796 C.ar    1  UNL1       -0.0079
     10 C          64.6625   87.2290   14.9850 C.3     1  UNL1        0.0111
     11 C          63.8666   86.6437   13.8561 C.3     1  UNL1        0.0634
     12 C          63.5917   85.1697   13.8177 C.ar    1  UNL1        0.0818
     13 C          64.5287   84.2506   13.0914 C.ar    1  UNL1        0.1139
     14 N          64.2537   82.7766   13.0530 N.ar    1  UNL1       -0.2394
     15 C          63.0419   82.2214   13.7409 C.ar    1  UNL1        0.1195
     16 C          62.1049   83.1404   14.4673 C.ar    1  UNL1        0.1191
     17 N          62.3798   84.6145   14.5056 N.ar    1  UNL1       -0.2446
     18 C          64.2874   89.8732   13.6488 C.3     1  UNL1        0.0394
     19 C          64.3270   91.3614   13.4659 C.3     1  UNL1        0.0768
     20 N          65.4649   91.9956   12.7222 N.3     1  UNL1       -0.2670
     21 C          66.7847   92.2019   13.4048 C.3     1  UNL1        0.0899
     22 C          65.2831   92.4235   11.2961 C.3     1  UNL1        0.1057
     23 C          66.4609   92.9041   10.5013 C.ar    1  UNL1        0.0234
     24 C          67.6521   92.0828   10.1058 C.ar    1  UNL1        0.0041
     25 C          68.5817   92.9615    9.3225 C.ar    1  UNL1        0.0072
     26 C          67.9651   94.3260    9.2339 C.ar    1  UNL1        0.0352
     27 S          66.6543   94.2905    9.9624 S.2     1  UNL1       -0.0894
@<TRIPOS>BOND
     1    11    10    1
     2    11     1    1
     3     1     2    2
     4     2    18    1
     5    18    19    1
     6    19    20    1
     7    20    21    1
     8    20    22    1
     9    22    23    1
    10    23    24   ar
    11    24    25   ar
    12    25    26   ar
    13    26    27   ar
    14     2     3    1
    15     3     4    1
    16     4     5   ar
    17     5     6   ar
    18     6     7   ar
    19     7     8   ar
    20     8     9   ar
    21    11    12    1
    22    12    13   ar
    23    13    14   ar
    24    14    15   ar
    25    15    16   ar
    26    16    17   ar
    27     9     1    1
    28    17    12   ar
    29    27    23   ar
    30     9     4   ar
