@<TRIPOS>MOLECULE
*****
 27 26 0 0 0
SMALL
GASTEIGER

@<TRIPOS>ATOM
      1 C          63.1515   86.0355   16.8606 C.3     1  UNL1        0.0026
      2 C          62.5196   87.3416   17.2411 C.3     1  UNL1        0.0325
      3 C          63.1772   88.6335   16.8554 C.3     1  UNL1        0.1491
      4 O          62.6611   89.4178   15.6857 O.3     1  UNL1       -0.3141
      5 P          63.6227   90.0441   14.7198 P.3     1  UNL1        0.2142
      6 O          63.6490   91.2904   15.5540 O.2     1  UNL1       -0.5172
      7 O          63.5964   88.7979   13.8855 O.co2   1  UNL1       -0.4373
      8 O          64.5844   90.6704   13.7538 O.3     1  UNL1       -0.3077
      9 C          65.8452   91.3080   14.2577 C.3     1  UNL1        0.2097
     10 C          66.8182   91.9133   13.2898 C.3     1  UNL1        0.1423
     11 N          66.5129   93.2333   12.6461 N.4     1  UNL1        0.3125
     12 C          66.6270   93.9102   13.9798 C.3     1  UNL1        0.1711
     13 C          66.3988   92.5565   11.3123 C.3     1  UNL1        0.1711
     14 C          66.2076   94.5533   12.0023 C.3     1  UNL1        0.1711
     15 C          64.0285   85.9522   15.6466 C.3     1  UNL1        0.0001
     16 C          64.0118   84.7192   14.7924 C.3     1  UNL1        0.0000
     17 C          62.7975   83.8389   14.7698 C.3     1  UNL1        0.0000
     18 C          62.9327   82.3830   14.4347 C.3     1  UNL1        0.0000
     19 C          62.1824   81.8088   13.2697 C.3     1  UNL1        0.0000
     20 C          62.9083   81.4781   11.9995 C.3     1  UNL1        0.0000
     21 C          64.0953   82.2938   11.5798 C.3     1  UNL1        0.0000
     22 C          64.1047   82.9708   10.2414 C.3     1  UNL1        0.0000
     23 C          63.4510   84.3104   10.0740 C.3     1  UNL1        0.0000
     24 C          62.4320   84.7775   11.0708 C.3     1  UNL1        0.0000
     25 C          62.5506   86.1426   11.6810 C.3     1  UNL1        0.0000
     26 C          60.5666   87.5250   10.7308 C.3     1  UNL1        0.0000
     27 C          62.0407   87.3427   10.9392 C.3     1  UNL1        0.0000
@<TRIPOS>UNITY_ATOM_ATTR
7 1
charge -1
11 1
charge 1
@<TRIPOS>BOND
     1    26    27    1
     2    27    25    1
     3    25    24    1
     4    24    23    1
     5    23    22    1
     6    22    21    1
     7    21    20    1
     8    20    19    1
     9    19    18    1
    10    18    17    1
    11    17    16    1
    12    16    15    1
    13    15     1    1
    14     1     2    1
    15     2     3    1
    16     3     4    1
    17     4     5    1
    18     5     6    2
    19     5     7    1
    20     5     8    1
    21     8     9    1
    22     9    10    1
    23    10    11    1
    24    11    12    1
    25    11    13    1
    26    11    14    1
@<TRIPOS>MOLECULE
*****
 27 26 0 0 0
SMALL
GASTEIGER

@<TRIPOS>ATOM
      1 C          64.7928   84.8671   14.4612 C.3     1  UNL1        0.0026
      2 C          63.9882   85.9821   15.0606 C.3     1  UNL1        0.0325
      3 C          64.4052   87.4071   14.8466 C.3     1  UNL1        0.1491
      4 O          63.5717   88.5239   15.4014 O.3     1  UNL1       -0.3141
      5 P          63.6613   89.8959   14.8019 P.3     1  UNL1        0.2142
      6 O          63.9828   89.2916   13.4672 O.2     1  UNL1       -0.5172
      7 O          63.3398   90.5001   16.1366 O.co2   1  UNL1       -0.4373
      8 O          63.7509   91.2680   14.2024 O.3     1  UNL1       -0.3077
      9 C          64.4524   91.4695   12.8919 C.3     1  UNL1        0.2097
     10 C          65.5217   92.5138   12.7664 C.3     1  UNL1        0.1423
     11 N          66.4305   92.5171   11.5731 N.4     1  UNL1        0.3125
     12 C          67.6023   92.2310   12.4648 C.3     1  UNL1        0.1711
     13 C          65.2588   92.8031   10.6814 C.3     1  UNL1        0.1711
     14 C          67.3394   92.5203   10.3798 C.3     1  UNL1        0.1711
     15 C          64.2593   83.4653   14.4761 C.3     1  UNL1        0.0001
     16 C          62.8176   83.2149   14.8061 C.3     1  UNL1        0.0000
     17 C          62.1131   82.0216   14.2319 C.3     1  UNL1        0.0000
     18 C          62.8035   81.1596   13.2168 C.3     1  UNL1        0.0000
     19 C          62.7672   81.5351   11.7650 C.3     1  UNL1        0.0000
     20 C          64.0299   81.9385   11.0629 C.3     1  UNL1        0.0000
     21 C          64.2914   83.3845   10.7617 C.3     1  UNL1        0.0000
     22 C          63.1531   84.2942   10.4058 C.3     1  UNL1        0.0000
     23 C          62.5039   85.1334   11.4661 C.3     1  UNL1        0.0000
     24 C          61.4124   86.0944   11.0982 C.3     1  UNL1        0.0000
     25 C          61.3068   86.6071    9.6926 C.3     1  UNL1        0.0000
     26 C          60.1281   88.7445    8.8024 C.3     1  UNL1        0.0000
     27 C          60.0614   87.3122    9.2430 C.3     1  UNL1        0.0000
@<TRIPOS>UNITY_ATOM_ATTR
7 1
charge -1
11 1
charge 1
@<TRIPOS>BOND
     1    26    27    1
     2    27    25    1
     3    25    24    1
     4    24    23    1
     5    23    22    1
     6    22    21    1
     7    21    20    1
     8    20    19    1
     9    19    18    1
    10    18    17    1
    11    17    16    1
    12    16    15    1
    13    15     1    1
    14     1     2    1
    15     2     3    1
    16     3     4    1
    17     4     5    1
    18     5     6    2
    19     5     7    1
    20     5     8    1
    21     8     9    1
    22     9    10    1
    23    10    11    1
    24    11    12    1
    25    11    13    1
    26    11    14    1
@<TRIPOS>MOLECULE
*****
 27 26 0 0 0
SMALL
GASTEIGER

@<TRIPOS>ATOM
      1 C          63.4845   89.2444   13.0388 C.3     1  UNL1        0.0026
      2 C          64.4305   89.3684   14.1962 C.3     1  UNL1        0.0325
      3 C          64.9897   90.7100   14.5674 C.3     1  UNL1        0.1491
      4 O          66.4252   91.0314   14.2741 O.3     1  UNL1       -0.3141
      5 P          66.7777   92.2986   13.5530 P.3     1  UNL1        0.2142
      6 O          68.2177   91.8798   13.5212 O.2     1  UNL1       -0.5172
      7 O          65.3378   92.7173   13.5849 O.co2   1  UNL1       -0.4373
      8 O          67.1303   93.5658   12.8319 O.3     1  UNL1       -0.3077
      9 C          66.1482   94.1871   11.8835 C.3     1  UNL1        0.2097
     10 C          66.2416   93.9020   10.4138 C.3     1  UNL1        0.1423
     11 N          66.8108   94.9327    9.4846 N.4     1  UNL1        0.3125
     12 C          67.8203   93.9360    8.9973 C.3     1  UNL1        0.1711
     13 C          65.8014   95.9295    9.9719 C.3     1  UNL1        0.1711
     14 C          67.3801   95.9635    8.5553 C.3     1  UNL1        0.1711
     15 C          63.1009   90.4612   12.2500 C.3     1  UNL1        0.0001
     16 C          62.8038   90.3421   10.7845 C.3     1  UNL1        0.0000
     17 C          62.4144   89.0152   10.2036 C.3     1  UNL1        0.0000
     18 C          61.0212   88.4927   10.3943 C.3     1  UNL1        0.0000
     19 C          60.8063   87.1038   10.9184 C.3     1  UNL1        0.0000
     20 C          61.4626   85.9370   10.2419 C.3     1  UNL1        0.0000
     21 C          62.6564   85.2805   10.8695 C.3     1  UNL1        0.0000
     22 C          63.2657   84.0665   10.2331 C.3     1  UNL1        0.0000
     23 C          63.9116   83.0163   11.0873 C.3     1  UNL1        0.0000
     24 C          63.1511   81.7768   11.4554 C.3     1  UNL1        0.0000
     25 C          63.3092   81.1778   12.8215 C.3     1  UNL1        0.0000
     26 C          61.0570   80.8986   14.0863 C.3     1  UNL1        0.0000
     27 C          62.2348   80.2935   13.3817 C.3     1  UNL1        0.0000
@<TRIPOS>UNITY_ATOM_ATTR
7 1
charge -1
11 1
charge 1
@<TRIPOS>BOND
     1    26    27    1
     2    27    25    1
     3    25    24    1
     4    24    23    1
     5    23    22    1
     6    22    21    1
     7    21    20    1
     8    20    19    1
     9    19    18    1
    10    18    17    1
    11    17    16    1
    12    16    15    1
    13    15     1    1
    14     1     2    1
    15     2     3    1
    16     3     4    1
    17     4     5    1
    18     5     6    2
    19     5     7    1
    20     5     8    1
    21     8     9    1
    22     9    10    1
    23    10    11    1
    24    11    12    1
    25    11    13    1
    26    11    14    1
@<TRIPOS>MOLECULE
*****
 27 26 0 0 0
SMALL
GASTEIGER

@<TRIPOS>ATOM
      1 C          64.3580   88.2058   14.7476 C.3     1  UNL1        0.0026
      2 C          63.6131   89.3695   15.3314 C.3     1  UNL1        0.0325
      3 C          64.1870   90.7521   15.2347 C.3     1  UNL1        0.1491
      4 O          64.0119   91.5506   13.9771 O.3     1  UNL1       -0.3141
      5 P          65.2145   92.0218   13.2144 P.3     1  UNL1        0.2142
      6 O          65.9268   92.2944   14.5060 O.2     1  UNL1       -0.5172
      7 O          64.5021   91.7493   11.9228 O.co2   1  UNL1       -0.4373
      8 O          66.4171   92.4931   12.4516 O.3     1  UNL1       -0.3077
      9 C          66.4474   93.8802   11.8816 C.3     1  UNL1        0.2097
     10 C          66.7120   94.0845   10.4193 C.3     1  UNL1        0.1423
     11 N          66.9059   95.4701    9.8786 N.4     1  UNL1        0.3125
     12 C          66.2501   96.0392   11.1018 C.3     1  UNL1        0.1711
     13 C          67.5617   94.9010    8.6555 C.3     1  UNL1        0.1711
     14 C          67.0999   96.8558    9.3379 C.3     1  UNL1        0.1711
     15 C          64.1418   86.8262   15.2950 C.3     1  UNL1        0.0001
     16 C          65.0174   85.6946   14.8442 C.3     1  UNL1        0.0000
     17 C          64.4408   84.5834   14.0180 C.3     1  UNL1        0.0000
     18 C          62.9995   84.1997   14.1782 C.3     1  UNL1        0.0000
     19 C          62.6367   82.9185   14.8687 C.3     1  UNL1        0.0000
     20 C          62.0495   81.7835   14.0833 C.3     1  UNL1        0.0000
     21 C          62.9090   81.0075   13.1298 C.3     1  UNL1        0.0000
     22 C          62.9873   81.4153   11.6885 C.3     1  UNL1        0.0000
     23 C          64.0964   82.3107   11.2216 C.3     1  UNL1        0.0000
     24 C          63.8205   83.3793   10.2056 C.3     1  UNL1        0.0000
     25 C          62.9493   84.5468   10.5628 C.3     1  UNL1        0.0000
     26 C          62.9640   85.3171    8.0816 C.3     1  UNL1        0.0000
     27 C          62.5259   85.5190    9.5019 C.3     1  UNL1        0.0000
@<TRIPOS>UNITY_ATOM_ATTR
7 1
charge -1
11 1
charge 1
@<TRIPOS>BOND
     1    26    27    1
     2    27    25    1
     3    25    24    1
     4    24    23    1
     5    23    22    1
     6    22    21    1
     7    21    20    1
     8    20    19    1
     9    19    18    1
    10    18    17    1
    11    17    16    1
    12    16    15    1
    13    15     1    1
    14     1     2    1
    15     2     3    1
    16     3     4    1
    17     4     5    1
    18     5     6    2
    19     5     7    1
    20     5     8    1
    21     8     9    1
    22     9    10    1
    23    10    11    1
    24    11    12    1
    25    11    13    1
    26    11    14    1
@<TRIPOS>MOLECULE
*****
 27 26 0 0 0
SMALL
GASTEIGER

@<TRIPOS>ATOM
      1 C          63.6904   84.8388   14.5313 C.3     1  UNL1        0.0026
      2 C          63.9918   85.9674   15.4722 C.3     1  UNL1        0.0325
      3 C          64.2909   87.3345   14.9321 C.3     1  UNL1        0.1491
      4 O          63.5363   88.5251   15.4450 O.3     1  UNL1       -0.3141
      5 P          63.7029   89.8607   14.7831 P.3     1  UNL1        0.2142
      6 O          63.9139   89.1802   13.4631 O.2     1  UNL1       -0.5172
      7 O          63.4919   90.5412   16.1030 O.co2   1  UNL1       -0.4373
      8 O          63.8696   91.1965   14.1211 O.3     1  UNL1       -0.3077
      9 C          65.1657   91.5451   13.4514 C.3     1  UNL1        0.2097
     10 C          66.0043   92.6706   13.9806 C.3     1  UNL1        0.1423
     11 N          67.1835   92.3779   14.8603 N.4     1  UNL1        0.3125
     12 C          67.9834   91.9795   13.6556 C.3     1  UNL1        0.1711
     13 C          66.3836   92.7763   16.0651 C.3     1  UNL1        0.1711
     14 C          68.3627   92.0852   15.7401 C.3     1  UNL1        0.1711
     15 C          62.4302   84.0418   14.6953 C.3     1  UNL1        0.0001
     16 C          62.4607   82.5501   14.5404 C.3     1  UNL1        0.0000
     17 C          62.4448   81.9378   13.1712 C.3     1  UNL1        0.0000
     18 C          63.7342   81.6856   12.4474 C.3     1  UNL1        0.0000
     19 C          64.1752   82.6144   11.3552 C.3     1  UNL1        0.0000
     20 C          63.1833   83.5339   10.7066 C.3     1  UNL1        0.0000
     21 C          63.0636   84.9554   11.1703 C.3     1  UNL1        0.0000
     22 C          61.7127   85.5984   11.2764 C.3     1  UNL1        0.0000
     23 C          61.3133   86.6690   10.3046 C.3     1  UNL1        0.0000
     24 C          61.9109   86.6942    8.9290 C.3     1  UNL1        0.0000
     25 C          61.3911   85.7696    7.8684 C.3     1  UNL1        0.0000
     26 C          61.8549   84.2126    5.8409 C.3     1  UNL1        0.0000
     27 C          62.3480   84.9604    7.0441 C.3     1  UNL1        0.0000
@<TRIPOS>UNITY_ATOM_ATTR
7 1
charge -1
11 1
charge 1
@<TRIPOS>BOND
     1    26    27    1
     2    27    25    1
     3    25    24    1
     4    24    23    1
     5    23    22    1
     6    22    21    1
     7    21    20    1
     8    20    19    1
     9    19    18    1
    10    18    17    1
    11    17    16    1
    12    16    15    1
    13    15     1    1
    14     1     2    1
    15     2     3    1
    16     3     4    1
    17     4     5    1
    18     5     6    2
    19     5     7    1
    20     5     8    1
    21     8     9    1
    22     9    10    1
    23    10    11    1
    24    11    12    1
    25    11    13    1
    26    11    14    1
@<TRIPOS>MOLECULE
*****
 27 26 0 0 0
SMALL
GASTEIGER

@<TRIPOS>ATOM
      1 C          64.3442   86.8007   14.9808 C.3     1  UNL1        0.0026
      2 C          64.2207   87.9586   14.0353 C.3     1  UNL1        0.0325
      3 C          64.1763   89.3602   14.5677 C.3     1  UNL1        0.1491
      4 O          65.4164   90.2040   14.5630 O.3     1  UNL1       -0.3141
      5 P          65.3953   91.5648   13.9323 P.3     1  UNL1        0.2142
      6 O          63.8972   91.5760   14.0068 O.2     1  UNL1       -0.5172
      7 O          66.8934   91.5535   13.8578 O.co2   1  UNL1       -0.4373
      8 O          65.3742   92.9256   13.3016 O.3     1  UNL1       -0.3077
      9 C          66.2665   93.2248   12.1336 C.3     1  UNL1        0.2097
     10 C          66.2821   94.5999   11.5346 C.3     1  UNL1        0.1423
     11 N          66.9326   94.8305   10.2028 N.4     1  UNL1        0.3125
     12 C          66.7452   96.3096   10.3674 C.3     1  UNL1        0.1711
     13 C          67.1200   93.3514   10.0382 C.3     1  UNL1        0.1711
     14 C          67.5831   95.0611    8.8710 C.3     1  UNL1        0.1711
     15 C          64.0653   85.4073   14.5007 C.3     1  UNL1        0.0001
     16 C          62.8373   84.6843   14.9691 C.3     1  UNL1        0.0000
     17 C          62.6076   83.2577   14.5668 C.3     1  UNL1        0.0000
     18 C          63.7674   82.3123   14.4609 C.3     1  UNL1        0.0000
     19 C          63.7529   81.2196   13.4334 C.3     1  UNL1        0.0000
     20 C          62.6968   81.2056   12.3683 C.3     1  UNL1        0.0000
     21 C          63.0426   81.6036   10.9640 C.3     1  UNL1        0.0000
     22 C          64.1033   82.6349   10.7163 C.3     1  UNL1        0.0000
     23 C          63.7782   84.0928   10.8531 C.3     1  UNL1        0.0000
     24 C          62.3811   84.5212   11.1919 C.3     1  UNL1        0.0000
     25 C          62.0538   85.9795   11.3190 C.3     1  UNL1        0.0000
     26 C          62.2594   88.3289   10.2289 C.3     1  UNL1        0.0000
     27 C          62.0309   86.8521   10.0991 C.3     1  UNL1        0.0000
@<TRIPOS>UNITY_ATOM_ATTR
7 1
charge -1
11 1
charge 1
@<TRIPOS>BOND
     1    26    27    1
     2    27    25    1
     3    25    24    1
     4    24    23    1
     5    23    22    1
     6    22    21    1
     7    21    20    1
     8    20    19    1
     9    19    18    1
    10    18    17    1
    11    17    16    1
    12    16    15    1
    13    15     1    1
    14     1     2    1
    15     2     3    1
    16     3     4    1
    17     4     5    1
    18     5     6    2
    19     5     7    1
    20     5     8    1
    21     8     9    1
    22     9    10    1
    23    10    11    1
    24    11    12    1
    25    11    13    1
    26    11    14    1
@<TRIPOS>MOLECULE
*****
 27 26 0 0 0
SMALL
GASTEIGER

@<TRIPOS>ATOM
      1 C          62.8129   80.5479   12.1769 C.3     1  UNL1        0.0026
      2 C          62.3168   80.5334   13.5923 C.3     1  UNL1        0.0325
      3 C          61.6072   81.7312   14.1508 C.3     1  UNL1        0.1491
      4 O          62.3115   82.6374   15.1166 O.3     1  UNL1       -0.3141
      5 P          63.3408   83.6087   14.6194 P.3     1  UNL1        0.2142
      6 O          62.2734   84.3633   13.8839 O.2     1  UNL1       -0.5172
      7 O          64.4082   82.8540   15.3550 O.co2   1  UNL1       -0.4373
      8 O          64.3701   84.5800   14.1223 O.3     1  UNL1       -0.3077
      9 C          64.6428   85.8409   14.8876 C.3     1  UNL1        0.2097
     10 C          63.8349   86.1667   16.1087 C.3     1  UNL1        0.1423
     11 N          63.4553   87.5884   16.3995 N.4     1  UNL1        0.3125
     12 C          64.1919   88.0362   15.1719 C.3     1  UNL1        0.1711
     13 C          62.7186   87.1407   17.6270 C.3     1  UNL1        0.1711
     14 C          63.0756   89.0102   16.6903 C.3     1  UNL1        0.1711
     15 C          62.9046   81.8441   11.4276 C.3     1  UNL1        0.0001
     16 C          64.2420   82.3659   10.9925 C.3     1  UNL1        0.0000
     17 C          64.3578   83.7472   10.4194 C.3     1  UNL1        0.0000
     18 C          63.4488   84.1758    9.3058 C.3     1  UNL1        0.0000
     19 C          62.5953   85.3992    9.4631 C.3     1  UNL1        0.0000
     20 C          61.6548   85.8036    8.3668 C.3     1  UNL1        0.0000
     21 C          60.3171   86.3920    8.7051 C.3     1  UNL1        0.0000
     22 C          59.7674   87.5237    7.8885 C.3     1  UNL1        0.0000
     23 C          59.9478   88.9392    8.3510 C.3     1  UNL1        0.0000
     24 C          60.5229   89.2172    9.7082 C.3     1  UNL1        0.0000
     25 C          61.9534   89.6479    9.8428 C.3     1  UNL1        0.0000
     26 C          62.8110   88.2084   11.8283 C.3     1  UNL1        0.0000
     27 C          62.6459   89.5458   11.1695 C.3     1  UNL1        0.0000
@<TRIPOS>UNITY_ATOM_ATTR
7 1
charge -1
11 1
charge 1
@<TRIPOS>BOND
     1    26    27    1
     2    27    25    1
     3    25    24    1
     4    24    23    1
     5    23    22    1
     6    22    21    1
     7    21    20    1
     8    20    19    1
     9    19    18    1
    10    18    17    1
    11    17    16    1
    12    16    15    1
    13    15     1    1
    14     1     2    1
    15     2     3    1
    16     3     4    1
    17     4     5    1
    18     5     6    2
    19     5     7    1
    20     5     8    1
    21     8     9    1
    22     9    10    1
    23    10    11    1
    24    11    12    1
    25    11    13    1
    26    11    14    1
@<TRIPOS>MOLECULE
*****
 27 26 0 0 0
SMALL
GASTEIGER

@<TRIPOS>ATOM
      1 C          62.3607   89.2565   10.6638 C.3     1  UNL1        0.0026
      2 C          62.9676   88.9546   12.0018 C.3     1  UNL1        0.0325
      3 C          63.1101   90.0434   13.0237 C.3     1  UNL1        0.1491
      4 O          64.4125   90.2305   13.7438 O.3     1  UNL1       -0.3141
      5 P          65.1882   91.5029   13.5724 P.3     1  UNL1        0.2142
      6 O          66.2590   90.9722   14.4789 O.2     1  UNL1       -0.5172
      7 O          64.1174   92.0336   12.6660 O.co2   1  UNL1       -0.4373
      8 O          65.9638   92.7753   13.4010 O.3     1  UNL1       -0.3077
      9 C          65.9592   93.4842   12.0791 C.3     1  UNL1        0.2097
     10 C          66.9419   93.0939   11.0153 C.3     1  UNL1        0.1423
     11 N          67.2203   94.0255    9.8731 N.4     1  UNL1        0.3125
     12 C          68.1082   92.9917    9.2463 C.3     1  UNL1        0.1711
     13 C          66.3324   95.0593   10.4999 C.3     1  UNL1        0.1711
     14 C          67.4986   94.9572    8.7309 C.3     1  UNL1        0.1711
     15 C          62.1261   88.1491    9.6796 C.3     1  UNL1        0.0001
     16 C          61.0243   87.1585    9.9137 C.3     1  UNL1        0.0000
     17 C          61.3547   85.7287   10.2246 C.3     1  UNL1        0.0000
     18 C          62.0510   85.3817   11.5072 C.3     1  UNL1        0.0000
     19 C          63.3793   84.6858   11.4749 C.3     1  UNL1        0.0000
     20 C          63.6260   83.5861   10.4850 C.3     1  UNL1        0.0000
     21 C          63.8106   82.1757   10.9613 C.3     1  UNL1        0.0000
     22 C          62.7734   81.5382   11.8376 C.3     1  UNL1        0.0000
     23 C          62.9710   81.4952   13.3238 C.3     1  UNL1        0.0000
     24 C          62.2017   82.4295   14.2101 C.3     1  UNL1        0.0000
     25 C          62.9311   83.3375   15.1553 C.3     1  UNL1        0.0000
     26 C          64.5362   85.3740   14.9920 C.3     1  UNL1        0.0000
     27 C          64.2580   83.9178   14.7643 C.3     1  UNL1        0.0000
@<TRIPOS>UNITY_ATOM_ATTR
7 1
charge -1
11 1
charge 1
@<TRIPOS>BOND
     1    26    27    1
     2    27    25    1
     3    25    24    1
     4    24    23    1
     5    23    22    1
     6    22    21    1
     7    21    20    1
     8    20    19    1
     9    19    18    1
    10    18    17    1
    11    17    16    1
    12    16    15    1
    13    15     1    1
    14     1     2    1
    15     2     3    1
    16     3     4    1
    17     4     5    1
    18     5     6    2
    19     5     7    1
    20     5     8    1
    21     8     9    1
    22     9    10    1
    23    10    11    1
    24    11    12    1
    25    11    13    1
    26    11    14    1
@<TRIPOS>MOLECULE
*****
 27 26 0 0 0
SMALL
GASTEIGER

@<TRIPOS>ATOM
      1 C          62.9713   84.6857   15.3239 C.3     1  UNL1        0.0026
      2 C          64.1212   85.2798   14.5658 C.3     1  UNL1        0.0325
      3 C          64.5146   86.7085   14.7981 C.3     1  UNL1        0.1491
      4 O          63.6278   87.6088   15.6062 O.3     1  UNL1       -0.3141
      5 P          63.5573   89.0732   15.2894 P.3     1  UNL1        0.2142
      6 O          63.2206   89.3667   16.7213 O.2     1  UNL1       -0.5172
      7 O          63.8939   88.7797   13.8575 O.co2   1  UNL1       -0.4373
      8 O          63.4867   90.5377   14.9725 O.3     1  UNL1       -0.3077
      9 C          64.1978   91.0796   13.7681 C.3     1  UNL1        0.2097
     10 C          65.5288   91.7536   13.9231 C.3     1  UNL1        0.1423
     11 N          65.8826   92.9238   13.0538 N.4     1  UNL1        0.3125
     12 C          66.5918   93.5671   14.2085 C.3     1  UNL1        0.1711
     13 C          65.1735   92.2805   11.8992 C.3     1  UNL1        0.1711
     14 C          66.2365   94.0939   12.1846 C.3     1  UNL1        0.1711
     15 C          62.3659   83.3893   14.8736 C.3     1  UNL1        0.0001
     16 C          63.1047   82.5124   13.9064 C.3     1  UNL1        0.0000
     17 C          62.3718   81.8688   12.7669 C.3     1  UNL1        0.0000
     18 C          63.0526   81.6912   11.4421 C.3     1  UNL1        0.0000
     19 C          64.1346   82.6410   11.0216 C.3     1  UNL1        0.0000
     20 C          63.8745   83.6398    9.9332 C.3     1  UNL1        0.0000
     21 C          62.9470   84.7928   10.1793 C.3     1  UNL1        0.0000
     22 C          62.5124   85.6627    9.0373 C.3     1  UNL1        0.0000
     23 C          61.6496   86.8624    9.2945 C.3     1  UNL1        0.0000
     24 C          62.2619   88.1290    9.8152 C.3     1  UNL1        0.0000
     25 C          61.9417   88.6019   11.2022 C.3     1  UNL1        0.0000
     26 C          59.9832   90.2513   10.7617 C.3     1  UNL1        0.0000
     27 C          61.3010   89.9424   11.4083 C.3     1  UNL1        0.0000
@<TRIPOS>UNITY_ATOM_ATTR
7 1
charge -1
11 1
charge 1
@<TRIPOS>BOND
     1    26    27    1
     2    27    25    1
     3    25    24    1
     4    24    23    1
     5    23    22    1
     6    22    21    1
     7    21    20    1
     8    20    19    1
     9    19    18    1
    10    18    17    1
    11    17    16    1
    12    16    15    1
    13    15     1    1
    14     1     2    1
    15     2     3    1
    16     3     4    1
    17     4     5    1
    18     5     6    2
    19     5     7    1
    20     5     8    1
    21     8     9    1
    22     9    10    1
    23    10    11    1
    24    11    12    1
    25    11    13    1
    26    11    14    1
