@<TRIPOS>MOLECULE
*****
 43 46 0 0 0
SMALL
GASTEIGER

@<TRIPOS>ATOM
      1 C          63.1233   87.8390   17.2926 C.3     1  UNL1        0.0038
      2 C          63.0946   86.4518   16.7228 C.3     1  UNL1        0.0473
      3 C          64.1637   86.0112   15.7673 C.3     1  UNL1        0.2054
      4 O          64.2412   86.6169   14.3972 O.3     1  UNL1       -0.4755
      5 C          63.5121   85.9782   13.2525 C.ar    1  UNL1        0.1386
      6 C          63.5088   84.4855   13.1047 C.ar    1  UNL1        0.0369
      7 C          62.7796   83.8468   11.9599 C.ar    1  UNL1        0.0030
      8 C          62.0538   84.7008   10.9630 C.ar    1  UNL1        0.0002
      9 C          62.0570   86.1935   11.1109 C.ar    1  UNL1        0.0030
     10 C          62.7861   86.8322   12.2556 C.ar    1  UNL1        0.0369
     11 C          61.3311   87.0475   10.1140 C.ar    1  UNL1        0.0001
     12 C          61.3471   88.5409   10.2531 C.ar    1  UNL1        0.0000
     13 C          60.6212   89.3948    9.2562 C.ar    1  UNL1        0.0000
     14 C          59.8793   88.7553    8.1201 C.ar    1  UNL1        0.0000
     15 C          59.8633   87.2619    7.9810 C.ar    1  UNL1        0.0000
     16 C          60.5892   86.4080    8.9779 C.ar    1  UNL1        0.0000
     17 C          62.7764   82.3541   11.8121 C.ar    1  UNL1        0.0001
     18 C          63.1515   81.7295   10.5008 C.ar    1  UNL1        0.0000
     19 C          63.1482   80.2368   10.3530 C.ar    1  UNL1        0.0000
     20 C          62.7699   79.3687   11.5164 C.ar    1  UNL1        0.0000
     21 C          62.3948   79.9934   12.8275 C.ar    1  UNL1        0.0000
     22 C          62.3981   81.4861   12.9753 C.ar    1  UNL1        0.0000
     23 C          62.5246   88.9786   16.5226 C.3     1  UNL1        0.0005
     24 C          63.4039   90.0784   16.0055 C.3     1  UNL1        0.0047
     25 C          64.4333   89.7843   14.9548 C.3     1  UNL1        0.0261
     26 C          65.5448   92.6964   12.4983 C.ar    1  UNL1        0.1342
     27 C          64.7134   92.3810   11.2903 C.ar    1  UNL1        0.0365
     28 C          63.7887   91.2000   11.3038 C.ar    1  UNL1        0.0028
     29 C          63.6953   90.3345   12.5252 C.ar    1  UNL1       -0.0044
     30 C          64.5266   90.6499   13.7332 C.ar    1  UNL1       -0.0232
     31 C          65.4514   91.8308   13.7198 C.ar    1  UNL1        0.0082
     32 C          66.2827   92.1462   14.9279 C.3     1  UNL1        0.0350
     33 C          67.6998   91.6613   15.0106 C.3     1  UNL1        0.0465
     34 C          68.8322   92.6441   14.9724 C.2     1  UNL1        0.0507
     35 O          68.8310   93.8262   15.8959 O.co2   1  UNL1       -0.5492
     36 O          69.9661   92.4450   14.0107 O.co2   1  UNL1       -0.5492
     37 O          66.4695   93.8774   12.4849 O.3     1  UNL1       -0.4758
     38 C          66.2843   94.9634   11.4670 C.3     1  UNL1        0.2058
     39 C          67.0837   94.9462   10.1979 C.3     1  UNL1        0.0532
     40 C          67.0669   93.7319    9.3173 C.3     1  UNL1        0.0455
     41 O          68.8535   92.2102    8.2026 O.co2   1  UNL1       -0.5492
     42 C          68.1547   92.7057    9.4340 C.2     1  UNL1        0.0505
     43 O          68.5438   92.1751   10.7820 O.co2   1  UNL1       -0.5492
@<TRIPOS>UNITY_ATOM_ATTR
35 1
charge -1
41 1
charge -1
@<TRIPOS>BOND
     1    41    42   ar
     2    42    43   ar
     3    42    40    1
     4    40    39    1
     5    39    38    1
     6    38    37    1
     7    37    26    1
     8    26    27   ar
     9    27    28   ar
    10    28    29   ar
    11    29    30   ar
    12    30    25    1
    13    25    24    1
    14    24    23    1
    15    23     1    1
    16     1     2    1
    17     2     3    1
    18     3     4    1
    19     4     5    1
    20     5     6   ar
    21     6     7   ar
    22     7    17    1
    23    17    18   ar
    24    18    19   ar
    25    19    20   ar
    26    20    21   ar
    27    21    22   ar
    28     7     8   ar
    29     8     9   ar
    30     9    11    1
    31    11    12   ar
    32    12    13   ar
    33    13    14   ar
    34    14    15   ar
    35    15    16   ar
    36     9    10   ar
    37    30    31   ar
    38    31    32    1
    39    32    33    1
    40    33    34    1
    41    34    35   ar
    42    34    36   ar
    43    31    26   ar
    44    10     5   ar
    45    22    17   ar
    46    16    11   ar
@<TRIPOS>MOLECULE
*****
 43 46 0 0 0
SMALL
GASTEIGER

@<TRIPOS>ATOM
      1 C          62.5715   87.4357   16.8019 C.3     1  UNL1        0.0038
      2 C          63.4758   86.2469   16.9397 C.3     1  UNL1        0.0473
      3 C          64.2515   85.7532   15.7545 C.3     1  UNL1        0.2054
      4 O          64.1779   86.4900   14.4501 O.3     1  UNL1       -0.4755
      5 C          63.4691   85.8746   13.2801 C.ar    1  UNL1        0.1386
      6 C          62.7511   86.7478   12.2943 C.ar    1  UNL1        0.0369
      7 C          62.0423   86.1323   11.1242 C.ar    1  UNL1        0.0030
      8 C          62.0516   84.6437   10.9401 C.ar    1  UNL1        0.0002
      9 C          62.7697   83.7705   11.9260 C.ar    1  UNL1        0.0030
     10 C          63.4784   84.3859   13.0959 C.ar    1  UNL1        0.0369
     11 C          62.7790   82.2819   11.7418 C.ar    1  UNL1        0.0001
     12 C          62.4123   81.3824   12.8848 C.ar    1  UNL1        0.0000
     13 C          62.4216   79.8938   12.7005 C.ar    1  UNL1        0.0000
     14 C          62.7977   79.3047   11.3733 C.ar    1  UNL1        0.0000
     15 C          63.1644   80.2041   10.2304 C.ar    1  UNL1        0.0000
     16 C          63.1551   81.6927   10.4146 C.ar    1  UNL1        0.0000
     17 C          61.3242   87.0055   10.1384 C.ar    1  UNL1        0.0001
     18 C          61.3289   88.4953   10.3133 C.ar    1  UNL1        0.0000
     19 C          60.6109   89.3685    9.3275 C.ar    1  UNL1        0.0000
     20 C          59.8881   88.7519    8.1666 C.ar    1  UNL1        0.0000
     21 C          59.8834   87.2621    7.9917 C.ar    1  UNL1        0.0000
     22 C          60.6015   86.3890    8.9776 C.ar    1  UNL1        0.0000
     23 C          63.1370   88.8222   16.8893 C.3     1  UNL1        0.0005
     24 C          63.1806   89.6928   15.6685 C.3     1  UNL1        0.0047
     25 C          64.4769   89.9046   14.9442 C.3     1  UNL1        0.0261
     26 C          65.4056   92.7467   12.3346 C.ar    1  UNL1        0.1342
     27 C          64.5683   92.3371   11.1594 C.ar    1  UNL1        0.0365
     28 C          63.7006   91.1166   11.2458 C.ar    1  UNL1        0.0028
     29 C          63.6701   90.3058   12.5073 C.ar    1  UNL1       -0.0044
     30 C          64.5073   90.7154   13.6825 C.ar    1  UNL1       -0.0232
     31 C          65.3751   91.9359   13.5962 C.ar    1  UNL1        0.0082
     32 C          66.2124   92.3455   14.7715 C.3     1  UNL1        0.0350
     33 C          67.5784   91.7556   14.9611 C.3     1  UNL1        0.0465
     34 C          68.7848   92.6468   14.9761 C.2     1  UNL1        0.0507
     35 O          69.9151   92.3951   14.0226 O.co2   1  UNL1       -0.5492
     36 O          68.8610   93.7897   15.9445 O.co2   1  UNL1       -0.5492
     37 O          66.2733   93.9672   12.2483 O.3     1  UNL1       -0.4758
     38 C          66.1231   94.9142   11.0948 C.3     1  UNL1        0.2058
     39 C          67.2031   95.0112   10.0584 C.3     1  UNL1        0.0532
     40 C          67.3333   93.9473    9.0090 C.3     1  UNL1        0.0455
     41 O          68.5148   92.3141   10.6481 O.co2   1  UNL1       -0.5492
     42 C          68.2241   92.7641    9.2470 C.2     1  UNL1        0.0505
     43 O          68.8240   92.0310    8.0841 O.co2   1  UNL1       -0.5492
@<TRIPOS>UNITY_ATOM_ATTR
35 1
charge -1
41 1
charge -1
@<TRIPOS>BOND
     1    41    42   ar
     2    42    43   ar
     3    42    40    1
     4    40    39    1
     5    39    38    1
     6    38    37    1
     7    37    26    1
     8    26    27   ar
     9    27    28   ar
    10    28    29   ar
    11    29    30   ar
    12    30    25    1
    13    25    24    1
    14    24    23    1
    15    23     1    1
    16     1     2    1
    17     2     3    1
    18     3     4    1
    19     4     5    1
    20     5     6   ar
    21     6     7   ar
    22     7    17    1
    23    17    18   ar
    24    18    19   ar
    25    19    20   ar
    26    20    21   ar
    27    21    22   ar
    28     7     8   ar
    29     8     9   ar
    30     9    11    1
    31    11    12   ar
    32    12    13   ar
    33    13    14   ar
    34    14    15   ar
    35    15    16   ar
    36     9    10   ar
    37    30    31   ar
    38    31    32    1
    39    32    33    1
    40    33    34    1
    41    34    35   ar
    42    34    36   ar
    43    31    26   ar
    44    10     5   ar
    45    22    17   ar
    46    16    11   ar
@<TRIPOS>MOLECULE
*****
 43 46 0 0 0
SMALL
GASTEIGER

@<TRIPOS>ATOM
      1 C          62.5020   87.0924   16.8830 C.3     1  UNL1        0.0038
      2 C          63.4471   85.9448   16.6832 C.3     1  UNL1        0.0473
      3 C          64.4557   85.9882   15.5737 C.3     1  UNL1        0.2054
      4 O          64.1589   86.7564   14.3200 O.3     1  UNL1       -0.4755
      5 C          63.4390   86.0905   13.1851 C.ar    1  UNL1        0.1386
      6 C          63.4494   84.5953   13.0645 C.ar    1  UNL1        0.0369
      7 C          62.7294   83.9294   11.9295 C.ar    1  UNL1        0.0030
      8 C          61.9990   84.7585   10.9151 C.ar    1  UNL1        0.0002
      9 C          61.9886   86.2536   11.0357 C.ar    1  UNL1        0.0030
     10 C          62.7086   86.9196   12.1706 C.ar    1  UNL1        0.0369
     11 C          61.2582   87.0828   10.0212 C.ar    1  UNL1        0.0001
     12 C          60.6273   86.4258    8.8295 C.ar    1  UNL1        0.0000
     13 C          59.8969   87.2549    7.8151 C.ar    1  UNL1        0.0000
     14 C          59.7974   88.7411    7.9924 C.ar    1  UNL1        0.0000
     15 C          60.4284   89.3981    9.1842 C.ar    1  UNL1        0.0000
     16 C          61.1587   88.5689   10.1985 C.ar    1  UNL1        0.0000
     17 C          62.7398   82.4343   11.8090 C.ar    1  UNL1        0.0001
     18 C          63.1338   81.7890   10.5134 C.ar    1  UNL1        0.0000
     19 C          63.1443   80.2939   10.3929 C.ar    1  UNL1        0.0000
     20 C          62.7607   79.4440   11.5679 C.ar    1  UNL1        0.0000
     21 C          62.3667   80.0893   12.8634 C.ar    1  UNL1        0.0000
     22 C          62.3563   81.5844   12.9840 C.ar    1  UNL1        0.0000
     23 C          63.0376   88.4630   17.1736 C.3     1  UNL1        0.0005
     24 C          63.1353   89.4788   16.0741 C.3     1  UNL1        0.0047
     25 C          64.4525   89.7334   15.4033 C.3     1  UNL1        0.0261
     26 C          65.7556   92.0089   12.4243 C.ar    1  UNL1        0.1342
     27 C          64.5916   91.9350   11.4811 C.ar    1  UNL1        0.0365
     28 C          63.3813   91.1273   11.8453 C.ar    1  UNL1        0.0028
     29 C          63.3349   90.3934   13.1526 C.ar    1  UNL1       -0.0044
     30 C          64.4989   90.4673   14.0958 C.ar    1  UNL1       -0.0232
     31 C          65.7092   91.2750   13.7317 C.ar    1  UNL1        0.0082
     32 C          66.8732   91.3489   14.6749 C.3     1  UNL1        0.0350
     33 C          67.0944   92.5832   15.4980 C.3     1  UNL1        0.0465
     34 C          68.3936   93.3265   15.4010 C.2     1  UNL1        0.0507
     35 O          68.6396   94.5236   16.2709 O.co2   1  UNL1       -0.5492
     36 O          69.4469   92.8729   14.4341 O.co2   1  UNL1       -0.5492
     37 O          66.9659   92.8166   12.0601 O.3     1  UNL1       -0.4758
     38 C          68.0271   92.2233   11.1816 C.3     1  UNL1        0.2058
     39 C          67.9449   92.3850    9.6926 C.3     1  UNL1        0.0532
     40 C          68.3793   93.6702    9.0526 C.3     1  UNL1        0.0455
     41 O          67.2003   95.4395   10.5459 O.co2   1  UNL1       -0.5492
     42 C          67.5295   94.8991    9.1858 C.2     1  UNL1        0.0505
     43 O          67.0088   95.5875    7.9590 O.co2   1  UNL1       -0.5492
@<TRIPOS>UNITY_ATOM_ATTR
35 1
charge -1
41 1
charge -1
@<TRIPOS>BOND
     1    41    42   ar
     2    42    43   ar
     3    42    40    1
     4    40    39    1
     5    39    38    1
     6    38    37    1
     7    37    26    1
     8    26    27   ar
     9    27    28   ar
    10    28    29   ar
    11    29    30   ar
    12    30    25    1
    13    25    24    1
    14    24    23    1
    15    23     1    1
    16     1     2    1
    17     2     3    1
    18     3     4    1
    19     4     5    1
    20     5     6   ar
    21     6     7   ar
    22     7    17    1
    23    17    18   ar
    24    18    19   ar
    25    19    20   ar
    26    20    21   ar
    27    21    22   ar
    28     7     8   ar
    29     8     9   ar
    30     9    11    1
    31    11    12   ar
    32    12    13   ar
    33    13    14   ar
    34    14    15   ar
    35    15    16   ar
    36     9    10   ar
    37    30    31   ar
    38    31    32    1
    39    32    33    1
    40    33    34    1
    41    34    35   ar
    42    34    36   ar
    43    31    26   ar
    44    10     5   ar
    45    22    17   ar
    46    16    11   ar
@<TRIPOS>MOLECULE
*****
 43 46 0 0 0
SMALL
GASTEIGER

@<TRIPOS>ATOM
      1 C          62.8404   89.0363   16.1716 C.3     1  UNL1        0.0038
      2 C          63.5105   87.6967   16.2513 C.3     1  UNL1        0.0473
      3 C          64.4342   87.2538   15.1555 C.3     1  UNL1        0.2054
      4 O          64.4901   85.8079   14.7603 O.3     1  UNL1       -0.4755
      5 C          63.7571   85.3350   13.5401 C.ar    1  UNL1        0.1386
      6 C          63.0885   86.3272   12.6354 C.ar    1  UNL1        0.0369
      7 C          62.3554   85.8542   11.4150 C.ar    1  UNL1        0.0030
      8 C          62.2911   84.3892   11.0995 C.ar    1  UNL1        0.0002
      9 C          62.9597   83.3971   12.0043 C.ar    1  UNL1        0.0030
     10 C          63.6927   83.8699   13.2245 C.ar    1  UNL1        0.0369
     11 C          62.8953   81.9320   11.6887 C.ar    1  UNL1        0.0001
     12 C          62.5834   80.9442   12.7735 C.ar    1  UNL1        0.0000
     13 C          62.5190   79.4792   12.4579 C.ar    1  UNL1        0.0000
     14 C          62.7666   79.0021   11.0575 C.ar    1  UNL1        0.0000
     15 C          63.0785   79.9899    9.9727 C.ar    1  UNL1        0.0000
     16 C          63.1429   81.4549   10.2883 C.ar    1  UNL1        0.0000
     17 C          61.6868   86.8464   10.5103 C.ar    1  UNL1        0.0001
     18 C          60.7179   86.3754    9.4665 C.ar    1  UNL1        0.0000
     19 C          60.0492   87.3676    8.5617 C.ar    1  UNL1        0.0000
     20 C          60.3495   88.8307    8.7008 C.ar    1  UNL1        0.0000
     21 C          61.3183   89.3016    9.7446 C.ar    1  UNL1        0.0000
     22 C          61.9870   88.3094   10.6494 C.ar    1  UNL1        0.0000
     23 C          63.5446   90.2585   16.6816 C.3     1  UNL1        0.0005
     24 C          64.1761   91.2178   15.7167 C.3     1  UNL1        0.0047
     25 C          65.0684   90.7054   14.6253 C.3     1  UNL1        0.0261
     26 C          66.0160   92.7625   11.3664 C.ar    1  UNL1        0.1342
     27 C          64.8247   92.4835   10.4987 C.ar    1  UNL1        0.0365
     28 C          63.7147   91.6118   11.0065 C.ar    1  UNL1        0.0028
     29 C          63.7959   91.0191   12.3820 C.ar    1  UNL1       -0.0044
     30 C          64.9871   91.2981   13.2497 C.ar    1  UNL1       -0.0232
     31 C          66.0972   92.1699   12.7419 C.ar    1  UNL1        0.0082
     32 C          67.2885   92.4489   13.6097 C.3     1  UNL1        0.0350
     33 C          67.2197   93.5220   14.6556 C.3     1  UNL1        0.0465
     34 C          68.1118   93.4543   15.8595 C.2     1  UNL1        0.0507
     35 O          68.2419   92.1711   16.6254 O.co2   1  UNL1       -0.5492
     36 O          68.8740   94.6697   16.2975 O.co2   1  UNL1       -0.5492
     37 O          67.1260   93.6343   10.8586 O.3     1  UNL1       -0.4758
     38 C          67.0962   94.1404    9.4470 C.3     1  UNL1        0.2058
     39 C          67.6868   95.4794    9.1176 C.3     1  UNL1        0.0532
     40 C          66.9769   96.7344    9.5312 C.3     1  UNL1        0.0455
     41 O          64.3926   96.6635    9.7890 O.co2   1  UNL1       -0.5492
     42 C          65.7603   96.6547   10.4050 C.2     1  UNL1        0.0505
     43 O          65.9113   96.5661   11.8947 O.co2   1  UNL1       -0.5492
@<TRIPOS>UNITY_ATOM_ATTR
35 1
charge -1
41 1
charge -1
@<TRIPOS>BOND
     1    41    42   ar
     2    42    43   ar
     3    42    40    1
     4    40    39    1
     5    39    38    1
     6    38    37    1
     7    37    26    1
     8    26    27   ar
     9    27    28   ar
    10    28    29   ar
    11    29    30   ar
    12    30    25    1
    13    25    24    1
    14    24    23    1
    15    23     1    1
    16     1     2    1
    17     2     3    1
    18     3     4    1
    19     4     5    1
    20     5     6   ar
    21     6     7   ar
    22     7    17    1
    23    17    18   ar
    24    18    19   ar
    25    19    20   ar
    26    20    21   ar
    27    21    22   ar
    28     7     8   ar
    29     8     9   ar
    30     9    11    1
    31    11    12   ar
    32    12    13   ar
    33    13    14   ar
    34    14    15   ar
    35    15    16   ar
    36     9    10   ar
    37    30    31   ar
    38    31    32    1
    39    32    33    1
    40    33    34    1
    41    34    35   ar
    42    34    36   ar
    43    31    26   ar
    44    10     5   ar
    45    22    17   ar
    46    16    11   ar
@<TRIPOS>MOLECULE
*****
 43 46 0 0 0
SMALL
GASTEIGER

@<TRIPOS>ATOM
      1 C          63.5265   90.6529   16.8280 C.3     1  UNL1        0.0038
      2 C          64.0524   91.8793   16.1430 C.3     1  UNL1        0.0473
      3 C          65.5300   92.1319   16.0872 C.3     1  UNL1        0.2054
      4 O          66.2998   91.8076   14.8413 O.3     1  UNL1       -0.4755
      5 C          65.6845   92.0504   13.4951 C.ar    1  UNL1        0.1386
      6 C          66.2629   93.0913   12.5829 C.ar    1  UNL1        0.0369
      7 C          65.6476   93.3342   11.2366 C.ar    1  UNL1        0.0030
      8 C          64.4540   92.5361   10.8025 C.ar    1  UNL1        0.0002
      9 C          63.8757   91.4952   11.7146 C.ar    1  UNL1        0.0030
     10 C          64.4909   91.2523   13.0609 C.ar    1  UNL1        0.0369
     11 C          62.6821   90.6971   11.2805 C.ar    1  UNL1        0.0001
     12 C          61.6334   90.3115   12.2811 C.ar    1  UNL1        0.0000
     13 C          60.4398   89.5134   11.8469 C.ar    1  UNL1        0.0000
     14 C          60.2951   89.1010   10.4121 C.ar    1  UNL1        0.0000
     15 C          61.3438   89.4865    9.4114 C.ar    1  UNL1        0.0000
     16 C          62.5373   90.2846    9.8456 C.ar    1  UNL1        0.0000
     17 C          66.2259   94.3751   10.3244 C.ar    1  UNL1        0.0001
     18 C          67.2130   93.9801    9.2662 C.ar    1  UNL1        0.0000
     19 C          67.7913   95.0210    8.3540 C.ar    1  UNL1        0.0000
     20 C          67.3825   96.4569    8.5001 C.ar    1  UNL1        0.0000
     21 C          66.3955   96.8518    9.5583 C.ar    1  UNL1        0.0000
     22 C          65.8172   95.8109   10.4705 C.ar    1  UNL1        0.0000
     23 C          63.1361   89.4514   16.0194 C.3     1  UNL1        0.0005
     24 C          64.1791   88.6893   15.2568 C.3     1  UNL1        0.0047
     25 C          63.8102   87.9754   13.9903 C.3     1  UNL1        0.0261
     26 C          63.7128   84.2688   12.5754 C.ar    1  UNL1        0.1342
     27 C          64.5177   83.5473   13.6153 C.ar    1  UNL1        0.0365
     28 C          65.0867   84.3017   14.7802 C.ar    1  UNL1        0.0028
     29 C          64.8509   85.7778   14.9052 C.ar    1  UNL1       -0.0044
     30 C          64.0460   86.4993   13.8653 C.ar    1  UNL1       -0.0232
     31 C          63.4770   85.7449   12.7004 C.ar    1  UNL1        0.0082
     32 C          62.6720   86.4665   11.6605 C.3     1  UNL1        0.0350
     33 C          61.6041   85.7380   10.8998 C.3     1  UNL1        0.0465
     34 C          61.5520   85.8324    9.4037 C.2     1  UNL1        0.0507
     35 O          62.8096   85.6878    8.5988 O.co2   1  UNL1       -0.5492
     36 O          60.2424   86.0713    8.7124 O.co2   1  UNL1       -0.5492
     37 O          63.1437   83.5144   11.4106 O.3     1  UNL1       -0.4758
     38 C          63.4694   82.0618   11.2265 C.3     1  UNL1        0.2058
     39 C          62.4854   81.0128   11.6522 C.3     1  UNL1        0.0532
     40 C          62.4437   80.5594   13.0815 C.3     1  UNL1        0.0455
     41 O          61.8341   82.4763   14.7258 O.co2   1  UNL1       -0.5492
     42 C          61.4783   81.1903   14.0405 C.2     1  UNL1        0.0505
     43 O          60.1570   80.5352   14.3144 O.co2   1  UNL1       -0.5492
@<TRIPOS>UNITY_ATOM_ATTR
35 1
charge -1
41 1
charge -1
@<TRIPOS>BOND
     1    41    42   ar
     2    42    43   ar
     3    42    40    1
     4    40    39    1
     5    39    38    1
     6    38    37    1
     7    37    26    1
     8    26    27   ar
     9    27    28   ar
    10    28    29   ar
    11    29    30   ar
    12    30    25    1
    13    25    24    1
    14    24    23    1
    15    23     1    1
    16     1     2    1
    17     2     3    1
    18     3     4    1
    19     4     5    1
    20     5     6   ar
    21     6     7   ar
    22     7    17    1
    23    17    18   ar
    24    18    19   ar
    25    19    20   ar
    26    20    21   ar
    27    21    22   ar
    28     7     8   ar
    29     8     9   ar
    30     9    11    1
    31    11    12   ar
    32    12    13   ar
    33    13    14   ar
    34    14    15   ar
    35    15    16   ar
    36     9    10   ar
    37    30    31   ar
    38    31    32    1
    39    32    33    1
    40    33    34    1
    41    34    35   ar
    42    34    36   ar
    43    31    26   ar
    44    10     5   ar
    45    22    17   ar
    46    16    11   ar
@<TRIPOS>MOLECULE
*****
 43 46 0 0 0
SMALL
GASTEIGER

@<TRIPOS>ATOM
      1 C          59.8169   90.3298   10.1873 C.3     1  UNL1        0.0038
      2 C          60.9723   90.2098   11.1362 C.3     1  UNL1        0.0473
      3 C          62.3740   90.4085   10.6402 C.3     1  UNL1        0.2054
      4 O          63.2836   91.3802   11.3318 O.3     1  UNL1       -0.4755
      5 C          64.0424   90.9573   12.5546 C.ar    1  UNL1        0.1386
      6 C          63.6007   89.7529   13.3321 C.ar    1  UNL1        0.0369
      7 C          64.3596   89.3300   14.5549 C.ar    1  UNL1        0.0030
      8 C          65.5601   90.1113   15.0002 C.ar    1  UNL1        0.0002
      9 C          66.0017   91.3157   14.2227 C.ar    1  UNL1        0.0030
     10 C          65.2429   91.7386   12.9999 C.ar    1  UNL1        0.0369
     11 C          67.2023   92.0970   14.6681 C.ar    1  UNL1        0.0001
     12 C          68.5223   91.8986   13.9839 C.ar    1  UNL1        0.0000
     13 C          69.7227   92.6800   14.4293 C.ar    1  UNL1        0.0000
     14 C          69.6031   93.6597   15.5588 C.ar    1  UNL1        0.0000
     15 C          68.2831   93.8581   16.2429 C.ar    1  UNL1        0.0000
     16 C          67.0827   93.0768   15.7976 C.ar    1  UNL1        0.0000
     17 C          63.9180   88.1256   15.3325 C.ar    1  UNL1        0.0001
     18 C          63.1386   88.2973   16.6026 C.ar    1  UNL1        0.0000
     19 C          62.6969   87.0930   17.3801 C.ar    1  UNL1        0.0000
     20 C          63.0347   85.7170   16.8875 C.ar    1  UNL1        0.0000
     21 C          63.8140   85.5453   15.6174 C.ar    1  UNL1        0.0000
     22 C          64.2557   86.7497   14.8399 C.ar    1  UNL1        0.0000
     23 C          59.8171   89.5541    8.9034 C.3     1  UNL1        0.0005
     24 C          59.9304   88.0586    8.9307 C.3     1  UNL1        0.0047
     25 C          61.2690   87.4046    8.7560 C.3     1  UNL1        0.0261
     26 C          63.2766   84.4503   10.4857 C.ar    1  UNL1        0.1342
     27 C          62.8330   84.6023   11.9105 C.ar    1  UNL1        0.0365
     28 C          61.8681   85.6884   12.2838 C.ar    1  UNL1        0.0028
     29 C          61.3467   86.6225   11.2323 C.ar    1  UNL1       -0.0044
     30 C          61.7903   86.4705    9.8075 C.ar    1  UNL1       -0.0232
     31 C          62.7552   85.3844    9.4342 C.ar    1  UNL1        0.0082
     32 C          63.1988   85.2324    8.0093 C.3     1  UNL1        0.0350
     33 C          62.5824   84.1764    7.1405 C.3     1  UNL1        0.0465
     34 C          61.3998   84.5093    6.2799 C.2     1  UNL1        0.0507
     35 O          61.4514   84.2533    4.8028 O.co2   1  UNL1       -0.5492
     36 O          60.1657   85.0983    6.8964 O.co2   1  UNL1       -0.5492
     37 O          64.2415   83.3642   10.1123 O.3     1  UNL1       -0.4758
     38 C          64.2253   82.0596   10.8524 C.3     1  UNL1        0.2058
     39 C          62.9218   81.4667   11.2987 C.3     1  UNL1        0.0532
     40 C          62.8532   80.6801   12.5742 C.3     1  UNL1        0.0455
     41 O          60.8709   81.0712   14.2075 O.co2   1  UNL1       -0.5492
     42 C          62.2988   81.3124   13.8163 C.2     1  UNL1        0.0505
     43 O          63.1723   82.1858   14.6673 O.co2   1  UNL1       -0.5492
@<TRIPOS>UNITY_ATOM_ATTR
35 1
charge -1
41 1
charge -1
@<TRIPOS>BOND
     1    41    42   ar
     2    42    43   ar
     3    42    40    1
     4    40    39    1
     5    39    38    1
     6    38    37    1
     7    37    26    1
     8    26    27   ar
     9    27    28   ar
    10    28    29   ar
    11    29    30   ar
    12    30    25    1
    13    25    24    1
    14    24    23    1
    15    23     1    1
    16     1     2    1
    17     2     3    1
    18     3     4    1
    19     4     5    1
    20     5     6   ar
    21     6     7   ar
    22     7    17    1
    23    17    18   ar
    24    18    19   ar
    25    19    20   ar
    26    20    21   ar
    27    21    22   ar
    28     7     8   ar
    29     8     9   ar
    30     9    11    1
    31    11    12   ar
    32    12    13   ar
    33    13    14   ar
    34    14    15   ar
    35    15    16   ar
    36     9    10   ar
    37    30    31   ar
    38    31    32    1
    39    32    33    1
    40    33    34    1
    41    34    35   ar
    42    34    36   ar
    43    31    26   ar
    44    10     5   ar
    45    22    17   ar
    46    16    11   ar
@<TRIPOS>MOLECULE
*****
 43 46 0 0 0
SMALL
GASTEIGER

@<TRIPOS>ATOM
      1 C          59.6347   89.9999   10.4741 C.3     1  UNL1        0.0038
      2 C          60.8075   90.5268   11.2466 C.3     1  UNL1        0.0473
      3 C          62.1961   90.3711   10.7008 C.3     1  UNL1        0.2054
      4 O          63.3087   91.2296   11.2252 O.3     1  UNL1       -0.4755
      5 C          64.0131   90.8517   12.4944 C.ar    1  UNL1        0.1386
      6 C          65.1058   91.7260   13.0346 C.ar    1  UNL1        0.0369
      7 C          65.8103   91.3480   14.3039 C.ar    1  UNL1        0.0030
      8 C          65.4221   90.0959   15.0328 C.ar    1  UNL1        0.0002
      9 C          64.3295   89.2216   14.4926 C.ar    1  UNL1        0.0030
     10 C          63.6250   89.5995   13.2234 C.ar    1  UNL1        0.0369
     11 C          63.9413   87.9694   15.2216 C.ar    1  UNL1        0.0001
     12 C          64.3116   86.6289   14.6595 C.ar    1  UNL1        0.0000
     13 C          63.9234   85.3768   15.3885 C.ar    1  UNL1        0.0000
     14 C          63.1650   85.4652   16.6796 C.ar    1  UNL1        0.0000
     15 C          62.7948   86.8056   17.2418 C.ar    1  UNL1        0.0000
     16 C          63.1829   88.0577   16.5128 C.ar    1  UNL1        0.0000
     17 C          66.9029   92.2223   14.8441 C.ar    1  UNL1        0.0001
     18 C          66.8916   93.6960   14.5645 C.ar    1  UNL1        0.0000
     19 C          67.9842   94.5702   15.1047 C.ar    1  UNL1        0.0000
     20 C          69.0881   93.9708   15.9246 C.ar    1  UNL1        0.0000
     21 C          69.0994   92.4971   16.2042 C.ar    1  UNL1        0.0000
     22 C          68.0067   91.6229   15.6640 C.ar    1  UNL1        0.0000
     23 C          59.8085   89.5685    9.0481 C.3     1  UNL1        0.0005
     24 C          59.9398   88.1116    8.7160 C.3     1  UNL1        0.0047
     25 C          61.2988   87.4842    8.6182 C.3     1  UNL1        0.0261
     26 C          63.2088   84.5231   10.4440 C.ar    1  UNL1        0.1342
     27 C          62.7324   84.7056   11.8546 C.ar    1  UNL1        0.0365
     28 C          61.7781   85.8143   12.1863 C.ar    1  UNL1        0.0028
     29 C          61.3002   86.7405   11.1076 C.ar    1  UNL1       -0.0044
     30 C          61.7767   86.5580    9.6971 C.ar    1  UNL1       -0.0232
     31 C          62.7310   85.4493    9.3653 C.ar    1  UNL1        0.0082
     32 C          63.2074   85.2668    7.9547 C.3     1  UNL1        0.0350
     33 C          62.6161   84.1875    7.0971 C.3     1  UNL1        0.0465
     34 C          61.4183   84.4801    6.2429 C.2     1  UNL1        0.0507
     35 O          60.2019   85.1151    6.8491 O.co2   1  UNL1       -0.5492
     36 O          61.4367   84.1377    4.7826 O.co2   1  UNL1       -0.5492
     37 O          64.1631   83.4144   10.1123 O.3     1  UNL1       -0.4758
     38 C          63.8608   82.0102   10.5444 C.3     1  UNL1        0.2058
     39 C          63.6797   81.6959   11.9999 C.3     1  UNL1        0.0532
     40 C          62.3813   81.1249   12.4879 C.3     1  UNL1        0.0455
     41 O          60.5837   80.9017   14.3505 O.co2   1  UNL1       -0.5492
     42 C          61.9252   81.3918   13.8917 C.2     1  UNL1        0.0505
     43 O          62.8104   82.1489   14.8368 O.co2   1  UNL1       -0.5492
@<TRIPOS>UNITY_ATOM_ATTR
35 1
charge -1
41 1
charge -1
@<TRIPOS>BOND
     1    41    42   ar
     2    42    43   ar
     3    42    40    1
     4    40    39    1
     5    39    38    1
     6    38    37    1
     7    37    26    1
     8    26    27   ar
     9    27    28   ar
    10    28    29   ar
    11    29    30   ar
    12    30    25    1
    13    25    24    1
    14    24    23    1
    15    23     1    1
    16     1     2    1
    17     2     3    1
    18     3     4    1
    19     4     5    1
    20     5     6   ar
    21     6     7   ar
    22     7    17    1
    23    17    18   ar
    24    18    19   ar
    25    19    20   ar
    26    20    21   ar
    27    21    22   ar
    28     7     8   ar
    29     8     9   ar
    30     9    11    1
    31    11    12   ar
    32    12    13   ar
    33    13    14   ar
    34    14    15   ar
    35    15    16   ar
    36     9    10   ar
    37    30    31   ar
    38    31    32    1
    39    32    33    1
    40    33    34    1
    41    34    35   ar
    42    34    36   ar
    43    31    26   ar
    44    10     5   ar
    45    22    17   ar
    46    16    11   ar
@<TRIPOS>MOLECULE
*****
 43 46 0 0 0
SMALL
GASTEIGER

@<TRIPOS>ATOM
      1 C          59.6842   89.9751    5.9535 C.3     1  UNL1        0.0038
      2 C          59.1700   89.0887    7.0489 C.3     1  UNL1        0.0473
      3 C          59.9829   88.8856    8.2931 C.3     1  UNL1        0.2054
      4 O          60.0655   87.5260    8.9214 O.3     1  UNL1       -0.4755
      5 C          61.0640   87.2619   10.0091 C.ar    1  UNL1        0.1386
      6 C          61.7629   88.4072   10.6799 C.ar    1  UNL1        0.0369
      7 C          62.7615   88.1430   11.7677 C.ar    1  UNL1        0.0030
      8 C          63.0611   86.7336   12.1846 C.ar    1  UNL1        0.0002
      9 C          62.3622   85.5884   11.5138 C.ar    1  UNL1        0.0030
     10 C          61.3637   85.8525   10.4261 C.ar    1  UNL1        0.0369
     11 C          62.6619   84.1790   11.9307 C.ar    1  UNL1        0.0001
     12 C          62.6649   83.8116   13.3850 C.ar    1  UNL1        0.0000
     13 C          62.9646   82.4022   13.8019 C.ar    1  UNL1        0.0000
     14 C          63.2613   81.3603   12.7645 C.ar    1  UNL1        0.0000
     15 C          63.2584   81.7276   11.3102 C.ar    1  UNL1        0.0000
     16 C          62.9587   83.1370   10.8933 C.ar    1  UNL1        0.0000
     17 C          63.4603   89.2883   12.4385 C.ar    1  UNL1        0.0001
     18 C          64.0290   89.1168   13.8159 C.ar    1  UNL1        0.0000
     19 C          64.7279   90.2620   14.4867 C.ar    1  UNL1        0.0000
     20 C          64.8581   91.5788   13.7801 C.ar    1  UNL1        0.0000
     21 C          64.2894   91.7502   12.4027 C.ar    1  UNL1        0.0000
     22 C          63.5905   90.6050   11.7319 C.ar    1  UNL1        0.0000
     23 C          58.7581   90.9373    5.2706 C.3     1  UNL1        0.0005
     24 C          59.2584   92.2859    4.8448 C.3     1  UNL1        0.0047
     25 C          59.5225   92.5643    3.3947 C.3     1  UNL1        0.0261
     26 C          62.7396   93.7304    1.3847 C.ar    1  UNL1        0.1342
     27 C          63.7531   92.7372    1.8708 C.ar    1  UNL1        0.0365
     28 C          63.3563   91.6863    2.8650 C.ar    1  UNL1        0.0028
     29 C          61.9462   91.6287    3.3729 C.ar    1  UNL1       -0.0044
     30 C          60.9327   92.6219    2.8867 C.ar    1  UNL1       -0.0232
     31 C          61.3295   93.6728    1.8926 C.ar    1  UNL1        0.0082
     32 C          60.3159   94.6660    1.4064 C.3     1  UNL1        0.0350
     33 C          59.6112   94.4408    0.1016 C.3     1  UNL1        0.0465
     34 C          59.1499   93.0638   -0.2738 C.2     1  UNL1        0.0507
     35 O          60.1517   91.9645   -0.4693 O.co2   1  UNL1       -0.5492
     36 O          57.6869   92.7859   -0.4537 O.co2   1  UNL1       -0.5492
     37 O          63.1363   94.7813    0.3905 O.3     1  UNL1       -0.4758
     38 C          63.6527   94.3799   -0.9593 C.3     1  UNL1        0.2058
     39 C          62.6930   93.9856   -2.0426 C.3     1  UNL1        0.0532
     40 C          63.1345   93.0556   -3.1337 C.3     1  UNL1        0.0455
     41 O          64.6762   94.8507   -4.2066 O.co2   1  UNL1       -0.5492
     42 C          64.3125   93.4114   -3.9914 C.2     1  UNL1        0.0505
     43 O          65.1270   92.3279   -4.6338 O.co2   1  UNL1       -0.5492
@<TRIPOS>UNITY_ATOM_ATTR
35 1
charge -1
41 1
charge -1
@<TRIPOS>BOND
     1    41    42   ar
     2    42    43   ar
     3    42    40    1
     4    40    39    1
     5    39    38    1
     6    38    37    1
     7    37    26    1
     8    26    27   ar
     9    27    28   ar
    10    28    29   ar
    11    29    30   ar
    12    30    25    1
    13    25    24    1
    14    24    23    1
    15    23     1    1
    16     1     2    1
    17     2     3    1
    18     3     4    1
    19     4     5    1
    20     5     6   ar
    21     6     7   ar
    22     7    17    1
    23    17    18   ar
    24    18    19   ar
    25    19    20   ar
    26    20    21   ar
    27    21    22   ar
    28     7     8   ar
    29     8     9   ar
    30     9    11    1
    31    11    12   ar
    32    12    13   ar
    33    13    14   ar
    34    14    15   ar
    35    15    16   ar
    36     9    10   ar
    37    30    31   ar
    38    31    32    1
    39    32    33    1
    40    33    34    1
    41    34    35   ar
    42    34    36   ar
    43    31    26   ar
    44    10     5   ar
    45    22    17   ar
    46    16    11   ar
@<TRIPOS>MOLECULE
*****
 43 46 0 0 0
SMALL
GASTEIGER

@<TRIPOS>ATOM
      1 C          63.1937   88.6232   15.9813 C.3     1  UNL1        0.0038
      2 C          63.4812   89.7992   16.8669 C.3     1  UNL1        0.0473
      3 C          63.6373   91.1668   16.2706 C.3     1  UNL1        0.2054
      4 O          64.7838   91.4561   15.3477 O.3     1  UNL1       -0.4755
      5 C          64.5596   91.5043   13.8654 C.ar    1  UNL1        0.1386
      6 C          63.3940   90.7804   13.2592 C.ar    1  UNL1        0.0369
      7 C          63.1698   90.8286   11.7768 C.ar    1  UNL1        0.0030
      8 C          64.1112   91.6007   10.9006 C.ar    1  UNL1        0.0002
      9 C          65.2768   92.3245   11.5068 C.ar    1  UNL1        0.0030
     10 C          65.5010   92.2764   12.9891 C.ar    1  UNL1        0.0369
     11 C          66.2182   93.0966   10.6305 C.ar    1  UNL1        0.0001
     12 C          67.4149   92.4171   10.0336 C.ar    1  UNL1        0.0000
     13 C          68.3562   93.1892    9.1574 C.ar    1  UNL1        0.0000
     14 C          68.1009   94.6407    8.8781 C.ar    1  UNL1        0.0000
     15 C          66.9042   95.3201    9.4750 C.ar    1  UNL1        0.0000
     16 C          65.9629   94.5481   10.3512 C.ar    1  UNL1        0.0000
     17 C          62.0042   90.1048   11.1706 C.ar    1  UNL1        0.0001
     18 C          61.9799   89.8235    9.6974 C.ar    1  UNL1        0.0000
     19 C          60.8143   89.0996    9.0912 C.ar    1  UNL1        0.0000
     20 C          59.6730   88.6571    9.9583 C.ar    1  UNL1        0.0000
     21 C          59.6974   88.9384   11.4315 C.ar    1  UNL1        0.0000
     22 C          60.8630   89.6622   12.0376 C.ar    1  UNL1        0.0000
     23 C          64.2992   87.9968   15.1842 C.3     1  UNL1        0.0005
     24 C          64.1044   87.7157   13.7236 C.3     1  UNL1        0.0047
     25 C          62.9310   86.9007   13.2666 C.3     1  UNL1        0.0261
     26 C          64.0298   83.8464   10.9833 C.ar    1  UNL1        0.1342
     27 C          63.3297   84.1850    9.7007 C.ar    1  UNL1        0.0365
     28 C          62.4967   85.4289    9.6067 C.ar    1  UNL1        0.0028
     29 C          62.3638   86.3341   10.7953 C.ar    1  UNL1       -0.0044
     30 C          63.0639   85.9955   12.0779 C.ar    1  UNL1       -0.0232
     31 C          63.8969   84.7516   12.1719 C.ar    1  UNL1        0.0082
     32 C          64.5971   84.4130   13.4546 C.3     1  UNL1        0.0350
     33 C          63.8557   83.7045   14.5493 C.3     1  UNL1        0.0465
     34 C          63.0315   84.4891   15.5266 C.2     1  UNL1        0.0507
     35 O          61.5452   84.5846   15.3475 O.co2   1  UNL1       -0.5492
     36 O          63.6934   85.1782   16.6828 O.co2   1  UNL1       -0.5492
     37 O          64.8629   82.6025   11.0773 O.3     1  UNL1       -0.4758
     38 C          64.3253   81.3911   11.7797 C.3     1  UNL1        0.2058
     39 C          62.8744   81.0325   11.6524 C.3     1  UNL1        0.0532
     40 C          61.8858   81.5366   12.6616 C.3     1  UNL1        0.0455
     41 O          60.2246   80.6216   14.4374 O.co2   1  UNL1       -0.5492
     42 C          61.6237   80.7509   13.9122 C.2     1  UNL1        0.0505
     43 O          62.7607   80.0944   14.6375 O.co2   1  UNL1       -0.5492
@<TRIPOS>UNITY_ATOM_ATTR
35 1
charge -1
41 1
charge -1
@<TRIPOS>BOND
     1    41    42   ar
     2    42    43   ar
     3    42    40    1
     4    40    39    1
     5    39    38    1
     6    38    37    1
     7    37    26    1
     8    26    27   ar
     9    27    28   ar
    10    28    29   ar
    11    29    30   ar
    12    30    25    1
    13    25    24    1
    14    24    23    1
    15    23     1    1
    16     1     2    1
    17     2     3    1
    18     3     4    1
    19     4     5    1
    20     5     6   ar
    21     6     7   ar
    22     7    17    1
    23    17    18   ar
    24    18    19   ar
    25    19    20   ar
    26    20    21   ar
    27    21    22   ar
    28     7     8   ar
    29     8     9   ar
    30     9    11    1
    31    11    12   ar
    32    12    13   ar
    33    13    14   ar
    34    14    15   ar
    35    15    16   ar
    36     9    10   ar
    37    30    31   ar
    38    31    32    1
    39    32    33    1
    40    33    34    1
    41    34    35   ar
    42    34    36   ar
    43    31    26   ar
    44    10     5   ar
    45    22    17   ar
    46    16    11   ar
