@<TRIPOS>MOLECULE
*****
 30 31 0 0 0
SMALL
GASTEIGER

@<TRIPOS>ATOM
      1 N          63.0504   85.0981   12.4808 N.ar    1  UNL1       -0.3149
      2 C          63.7655   84.2191   13.4635 C.ar    1  UNL1        0.1203
      3 N          64.4902   85.1034   14.4346 N.ar    1  UNL1       -0.2310
      4 C          64.2228   86.5289   14.0520 C.ar    1  UNL1        0.0983
      5 C          64.6747   87.8295   14.6472 C.ar    1  UNL1        0.0206
      6 C          64.2368   89.1268   14.0348 C.ar    1  UNL1        0.0017
      7 C          63.3469   89.1236   12.8272 C.ar    1  UNL1        0.0016
      8 C          62.8950   87.8230   12.2321 C.ar    1  UNL1        0.0188
      9 C          63.3330   86.5257   12.8445 C.ar    1  UNL1        0.0786
     10 C          64.6887   90.4275   14.6299 C.2     1  UNL1        0.0048
     11 C          65.7836   91.2133   13.9715 C.2     1  UNL1        0.0598
     12 C          66.2355   92.5140   14.5667 C.2     1  UNL1        0.2679
     13 O          65.9332   93.8049   13.8651 O.2     1  UNL1       -0.2681
     14 N          66.9895   92.5237   15.8633 N.am    1  UNL1       -0.1934
     15 O          67.4414   93.8243   16.4584 O.3     1  UNL1       -0.2949
     16 H          67.1879   91.6764   16.3237 H       1  UNL1        0.1825
     17 H          67.1669   94.5556   15.8833 H       1  UNL1        0.2414
     18 C          62.2016   84.6315   11.3354 C.3     1  UNL1        0.1084
     19 C          62.3765   85.2400    9.9757 C.3     1  UNL1        0.0356
     20 C          63.5584   84.3499    9.7293 C.3     1  UNL1        0.0033
     21 C          61.1945   86.1302   10.2220 C.3     1  UNL1        0.0033
     22 C          62.5513   85.8486    8.6159 C.3     1  UNL1        0.0740
     23 C          62.1647   84.5756    6.3842 C.3     1  UNL1        0.0897
     24 N          61.6450   85.4444    7.4910 N.3     1  UNL1       -0.2703
     25 C          60.2189   85.9092    7.4730 C.3     1  UNL1        0.0897
     26 C          63.7575   82.7191   13.4735 C.3     1  UNL1        0.0639
     27 C          62.4868   81.9778   13.7662 C.3     1  UNL1        0.0071
     28 C          62.2664   82.8341   14.9779 C.3     1  UNL1        0.0004
     29 C          62.7072   81.1216   12.5546 C.3     1  UNL1        0.0004
     30 C          61.2160   81.2365   14.0589 C.3     1  UNL1        0.0004
@<TRIPOS>BOND
     1    23    24    1
     2    24    25    1
     3    24    22    1
     4    22    19    1
     5    19    20    1
     6    19    21    1
     7    19    18    1
     8    18     1    1
     9     1     2   ar
    10     2    26    1
    11    26    27    1
    12    27    28    1
    13    27    29    1
    14    27    30    1
    15     2     3   ar
    16     3     4   ar
    17     4     5   ar
    18     5     6   ar
    19     6    10    1
    20    10    11    2
    21    11    12    1
    22    12    13    2
    23    12    14   am
    24    14    15    1
    25     6     7   ar
    26     7     8   ar
    27     8     9   ar
    28     9     1   ar
    29     9     4   ar
    30    14    16    1
    31    15    17    1
@<TRIPOS>MOLECULE
*****
 30 31 0 0 0
SMALL
GASTEIGER

@<TRIPOS>ATOM
      1 N          62.3453   86.3779   11.9358 N.ar    1  UNL1       -0.3149
      2 C          62.8697   85.3361   12.8790 C.ar    1  UNL1        0.1203
      3 N          63.7469   86.0208   13.8847 N.ar    1  UNL1       -0.2310
      4 C          63.7648   87.4858   13.5631 C.ar    1  UNL1        0.0983
      5 C          64.4579   88.6474   14.2114 C.ar    1  UNL1        0.0206
      6 C          64.2847   90.0296   13.6552 C.ar    1  UNL1        0.0017
      7 C          63.4184   90.2503   12.4507 C.ar    1  UNL1        0.0016
      8 C          62.7253   89.0888   11.8024 C.ar    1  UNL1        0.0188
      9 C          62.8985   87.7065   12.3586 C.ar    1  UNL1        0.0786
     10 C          64.9778   91.1912   14.3036 C.2     1  UNL1        0.0048
     11 C          66.2432   91.7359   13.7102 C.2     1  UNL1        0.0598
     12 C          66.9363   92.8975   14.3585 C.2     1  UNL1        0.2679
     13 O          66.3672   94.2791   14.2267 O.2     1  UNL1       -0.2681
     14 N          68.1985   92.6775   15.1385 N.am    1  UNL1       -0.1934
     15 O          68.8915   93.8391   15.7868 O.3     1  UNL1       -0.2949
     16 H          68.5720   91.7708   15.2250 H       1  UNL1        0.1825
     17 H          68.3963   94.6533   15.6056 H       1  UNL1        0.2414
     18 C          61.4286   86.1340   10.7738 C.3     1  UNL1        0.1084
     19 C          61.0739   87.2603    9.8490 C.3     1  UNL1        0.0356
     20 C          62.1750   86.8439    8.9194 C.3     1  UNL1        0.0033
     21 C          59.9728   87.6769   10.7786 C.3     1  UNL1        0.0033
     22 C          60.7191   88.3867    8.9241 C.3     1  UNL1        0.0740
     23 C          59.3834   89.2886    6.8863 C.3     1  UNL1        0.0897
     24 N          59.7109   88.1732    7.8342 N.3     1  UNL1       -0.2703
     25 C          59.0302   86.8441    7.6922 C.3     1  UNL1        0.0897
     26 C          62.5695   83.8674   12.8257 C.3     1  UNL1        0.0639
     27 C          63.6718   82.8857   12.5589 C.3     1  UNL1        0.0071
     28 C          63.7103   83.3192   11.1235 C.3     1  UNL1        0.0004
     29 C          63.6333   82.4523   13.9944 C.3     1  UNL1        0.0004
     30 C          64.7742   81.9040   12.2922 C.3     1  UNL1        0.0004
@<TRIPOS>BOND
     1    23    24    1
     2    24    25    1
     3    24    22    1
     4    22    19    1
     5    19    20    1
     6    19    21    1
     7    19    18    1
     8    18     1    1
     9     1     2   ar
    10     2    26    1
    11    26    27    1
    12    27    28    1
    13    27    29    1
    14    27    30    1
    15     2     3   ar
    16     3     4   ar
    17     4     5   ar
    18     5     6   ar
    19     6    10    1
    20    10    11    2
    21    11    12    1
    22    12    13    2
    23    12    14   am
    24    14    15    1
    25     6     7   ar
    26     7     8   ar
    27     8     9   ar
    28     9     1   ar
    29     9     4   ar
    30    14    16    1
    31    15    17    1
@<TRIPOS>MOLECULE
*****
 30 31 0 0 0
SMALL
GASTEIGER

@<TRIPOS>ATOM
      1 N          65.4173   92.5640   12.9603 N.ar    1  UNL1       -0.3149
      2 C          65.6156   92.0024   14.3370 C.ar    1  UNL1        0.1203
      3 N          64.8412   90.7212   14.4308 N.ar    1  UNL1       -0.2310
      4 C          64.1644   90.4909   13.1121 C.ar    1  UNL1        0.0983
      5 C          63.2699   89.3913   12.6216 C.ar    1  UNL1        0.0206
      6 C          62.7315   89.4307   11.2221 C.ar    1  UNL1        0.0017
      7 C          63.0875   90.5696   10.3132 C.ar    1  UNL1        0.0016
      8 C          63.9820   91.6692   10.8038 C.ar    1  UNL1        0.0188
      9 C          64.5205   91.6299   12.2033 C.ar    1  UNL1        0.0786
     10 C          61.8369   88.3310   10.7315 C.2     1  UNL1        0.0048
     11 C          61.2299   88.4127    9.3622 C.2     1  UNL1        0.0598
     12 C          60.3354   87.3130    8.8716 C.2     1  UNL1        0.2679
     13 O          60.6379   85.8867    9.2238 O.2     1  UNL1       -0.2681
     14 N          59.1384   87.6398    8.0288 N.am    1  UNL1       -0.1934
     15 O          58.2439   86.5402    7.5382 O.3     1  UNL1       -0.2949
     16 H          58.9398   88.5759    7.7976 H       1  UNL1        0.1825
     17 H          58.5789   85.6861    7.8531 H       1  UNL1        0.2414
     18 C          66.0116   93.8363   12.4331 C.3     1  UNL1        0.1084
     19 C          66.4368   93.9272   10.9975 C.3     1  UNL1        0.0356
     20 C          67.4656   92.8617   11.2347 C.3     1  UNL1        0.0033
     21 C          65.4080   94.9928   10.7603 C.3     1  UNL1        0.0033
     22 C          66.8619   94.0181    9.5619 C.3     1  UNL1        0.0740
     23 C          67.6116   96.5019    9.6989 C.3     1  UNL1        0.0897
     24 N          67.0362   95.3601    8.9147 N.3     1  UNL1       -0.2703
     25 C          66.6349   95.5601    7.4833 C.3     1  UNL1        0.0897
     26 C          66.4429   92.6146   15.4282 C.3     1  UNL1        0.0639
     27 C          67.9391   92.6198   15.3219 C.3     1  UNL1        0.0071
     28 C          67.9093   91.2020   14.8332 C.3     1  UNL1        0.0004
     29 C          67.9688   94.0376   15.8106 C.3     1  UNL1        0.0004
     30 C          69.4353   92.6251   15.2156 C.3     1  UNL1        0.0004
@<TRIPOS>BOND
     1    23    24    1
     2    24    25    1
     3    24    22    1
     4    22    19    1
     5    19    20    1
     6    19    21    1
     7    19    18    1
     8    18     1    1
     9     1     2   ar
    10     2    26    1
    11    26    27    1
    12    27    28    1
    13    27    29    1
    14    27    30    1
    15     2     3   ar
    16     3     4   ar
    17     4     5   ar
    18     5     6   ar
    19     6    10    1
    20    10    11    2
    21    11    12    1
    22    12    13    2
    23    12    14   am
    24    14    15    1
    25     6     7   ar
    26     7     8   ar
    27     8     9   ar
    28     9     1   ar
    29     9     4   ar
    30    14    16    1
    31    15    17    1
@<TRIPOS>MOLECULE
*****
 30 31 0 0 0
SMALL
GASTEIGER

@<TRIPOS>ATOM
      1 N          62.1872   87.1928   11.4543 N.ar    1  UNL1       -0.3149
      2 C          61.7078   87.1736   10.0331 C.ar    1  UNL1        0.1203
      3 N          62.0697   88.4864    9.4041 N.ar    1  UNL1       -0.2310
      4 C          62.7727   89.3170   10.4366 C.ar    1  UNL1        0.0983
      5 C          63.3560   90.6979   10.3867 C.ar    1  UNL1        0.0206
      6 C          64.0120   91.2794   11.6038 C.ar    1  UNL1        0.0017
      7 C          64.0846   90.4799   12.8709 C.ar    1  UNL1        0.0016
      8 C          63.5012   89.0990   12.9209 C.ar    1  UNL1        0.0188
      9 C          62.8453   88.5175   11.7037 C.ar    1  UNL1        0.0786
     10 C          64.5955   92.6605   11.5539 C.2     1  UNL1        0.0048
     11 C          65.8624   92.9123   10.7914 C.2     1  UNL1        0.0598
     12 C          66.4458   94.2934   10.7415 C.2     1  UNL1        0.2679
     13 O          67.7348   94.5372   10.0141 O.2     1  UNL1       -0.2681
     14 N          65.7402   95.4305   11.4190 N.am    1  UNL1       -0.1934
     15 O          66.3237   96.8115   11.3691 O.3     1  UNL1       -0.2949
     16 H          64.8942   95.2705   11.8964 H       1  UNL1        0.1825
     17 H          67.1515   96.7947   10.8638 H       1  UNL1        0.2414
     18 C          62.0351   86.0824   12.4512 C.3     1  UNL1        0.1084
     19 C          63.1320   85.0740   12.6238 C.3     1  UNL1        0.0356
     20 C          62.4544   84.1682   11.6387 C.3     1  UNL1        0.0033
     21 C          63.8096   85.9797   13.6089 C.3     1  UNL1        0.0033
     22 C          64.2289   84.0656   12.7964 C.3     1  UNL1        0.0740
     23 C          63.8677   83.0935   15.1787 C.3     1  UNL1        0.0897
     24 N          64.0282   82.8865   13.7018 N.3     1  UNL1       -0.2703
     25 C          63.9880   81.5003   13.1300 C.3     1  UNL1        0.0897
     26 C          60.9922   86.0406    9.3592 C.3     1  UNL1        0.0639
     27 C          61.4418   85.5669    8.0089 C.3     1  UNL1        0.0071
     28 C          62.8093   85.2921    8.5606 C.3     1  UNL1        0.0004
     29 C          60.0743   85.8416    7.4572 C.3     1  UNL1        0.0004
     30 C          61.8914   85.0932    6.6584 C.3     1  UNL1        0.0004
@<TRIPOS>BOND
     1    23    24    1
     2    24    25    1
     3    24    22    1
     4    22    19    1
     5    19    20    1
     6    19    21    1
     7    19    18    1
     8    18     1    1
     9     1     2   ar
    10     2    26    1
    11    26    27    1
    12    27    28    1
    13    27    29    1
    14    27    30    1
    15     2     3   ar
    16     3     4   ar
    17     4     5   ar
    18     5     6   ar
    19     6    10    1
    20    10    11    2
    21    11    12    1
    22    12    13    2
    23    12    14   am
    24    14    15    1
    25     6     7   ar
    26     7     8   ar
    27     8     9   ar
    28     9     1   ar
    29     9     4   ar
    30    14    16    1
    31    15    17    1
@<TRIPOS>MOLECULE
*****
 30 31 0 0 0
SMALL
GASTEIGER

@<TRIPOS>ATOM
      1 N          63.1954   86.5029   12.2603 N.ar    1  UNL1       -0.3149
      2 C          63.4090   87.7972   12.9877 C.ar    1  UNL1        0.1203
      3 N          62.6099   88.8581   12.2905 N.ar    1  UNL1       -0.2310
      4 C          61.9026   88.2194   11.1321 C.ar    1  UNL1        0.0983
      5 C          60.9758   88.7753   10.0920 C.ar    1  UNL1        0.0206
      6 C          60.4108   87.8755    9.0331 C.ar    1  UNL1        0.0017
      7 C          60.7727   86.4199    9.0144 C.ar    1  UNL1        0.0016
      8 C          61.6995   85.8641   10.0546 C.ar    1  UNL1        0.0188
      9 C          62.2644   86.7639   11.1135 C.ar    1  UNL1        0.0786
     10 C          59.4839   88.4313    7.9929 C.2     1  UNL1        0.0048
     11 C          59.9183   89.5879    7.1423 C.2     1  UNL1        0.0598
     12 C          58.9914   90.1437    6.1020 C.2     1  UNL1        0.2679
     13 O          59.5471   90.8753    4.9163 O.2     1  UNL1       -0.2681
     14 N          57.5089   89.9679    6.2475 N.am    1  UNL1       -0.1934
     15 O          56.5821   90.5237    5.2073 O.3     1  UNL1       -0.2949
     16 H          57.1442   89.4878    7.0258 H       1  UNL1        0.1825
     17 H          57.0998   90.9629    4.5145 H       1  UNL1        0.2414
     18 C          63.8057   85.1800   12.6170 C.3     1  UNL1        0.1084
     19 C          62.9995   83.9220   12.4849 C.3     1  UNL1        0.0356
     20 C          62.2159   84.2957   13.7081 C.3     1  UNL1        0.0033
     21 C          63.7832   83.5483   11.2616 C.3     1  UNL1        0.0033
     22 C          62.1933   82.6640   12.3527 C.3     1  UNL1        0.0740
     23 C          63.7650   81.0850   13.6894 C.3     1  UNL1        0.0897
     24 N          62.3824   81.5454   13.3340 N.3     1  UNL1       -0.2703
     25 C          61.1887   80.8871   13.9599 C.3     1  UNL1        0.0897
     26 C          64.2703   87.9958   14.1996 C.3     1  UNL1        0.0639
     27 C          63.9139   89.0465   15.2090 C.3     1  UNL1        0.0071
     28 C          64.5717   90.0898   14.3553 C.3     1  UNL1        0.0004
     29 C          63.2562   88.0033   16.0628 C.3     1  UNL1        0.0004
     30 C          63.5575   90.0973   16.2185 C.3     1  UNL1        0.0004
@<TRIPOS>BOND
     1    23    24    1
     2    24    25    1
     3    24    22    1
     4    22    19    1
     5    19    20    1
     6    19    21    1
     7    19    18    1
     8    18     1    1
     9     1     2   ar
    10     2    26    1
    11    26    27    1
    12    27    28    1
    13    27    29    1
    14    27    30    1
    15     2     3   ar
    16     3     4   ar
    17     4     5   ar
    18     5     6   ar
    19     6    10    1
    20    10    11    2
    21    11    12    1
    22    12    13    2
    23    12    14   am
    24    14    15    1
    25     6     7   ar
    26     7     8   ar
    27     8     9   ar
    28     9     1   ar
    29     9     4   ar
    30    14    16    1
    31    15    17    1
@<TRIPOS>MOLECULE
*****
 30 31 0 0 0
SMALL
GASTEIGER

@<TRIPOS>ATOM
      1 N          62.0316   86.9287   11.3660 N.ar    1  UNL1       -0.3149
      2 C          61.5377   87.7163   10.1888 C.ar    1  UNL1        0.1203
      3 N          62.0614   89.1162   10.3151 N.ar    1  UNL1       -0.2310
      4 C          62.8790   89.1938   11.5704 C.ar    1  UNL1        0.0983
      5 C          63.6379   90.3208   12.2058 C.ar    1  UNL1        0.0206
      6 C          64.3783   90.0958   13.4908 C.ar    1  UNL1        0.0017
      7 C          64.3599   88.7438   14.1402 C.ar    1  UNL1        0.0016
      8 C          63.6010   87.6168   13.5047 C.ar    1  UNL1        0.0188
      9 C          62.8606   87.8418   12.2198 C.ar    1  UNL1        0.0786
     10 C          65.1373   91.2229   14.1263 C.2     1  UNL1        0.0048
     11 C          66.5407   91.0041   14.6085 C.2     1  UNL1        0.0598
     12 C          67.2996   92.1312   15.2441 C.2     1  UNL1        0.2679
     13 O          66.7286   92.8424   16.4349 O.2     1  UNL1       -0.2681
     14 N          68.6295   92.5470   14.6888 N.am    1  UNL1       -0.1934
     15 O          69.3884   93.6740   15.3243 O.3     1  UNL1       -0.2949
     16 H          69.0043   92.0802   13.9072 H       1  UNL1        0.1825
     17 H          68.8828   94.0209   16.0760 H       1  UNL1        0.2414
     18 C          61.7466   85.4819   11.6410 C.3     1  UNL1        0.1084
     19 C          62.8743   84.5385   11.9378 C.3     1  UNL1        0.0356
     20 C          63.2803   84.5696   10.4942 C.3     1  UNL1        0.0033
     21 C          62.4682   84.5074   13.3816 C.3     1  UNL1        0.0033
     22 C          64.0020   83.5951   12.2347 C.3     1  UNL1        0.0740
     23 C          63.2134   81.3729   11.1437 C.3     1  UNL1        0.0897
     24 N          63.7410   82.1211   12.3318 N.3     1  UNL1       -0.2703
     25 C          64.0078   81.3954   13.6172 C.3     1  UNL1        0.0897
     26 C          60.6720   87.1955    9.0800 C.3     1  UNL1        0.0639
     27 C          61.2179   86.1873    8.1128 C.3     1  UNL1        0.0071
     28 C          59.8232   85.8559    7.6712 C.3     1  UNL1        0.0004
     29 C          62.6125   86.5188    8.5544 C.3     1  UNL1        0.0004
     30 C          61.7638   85.1791    7.1455 C.3     1  UNL1        0.0004
@<TRIPOS>BOND
     1    23    24    1
     2    24    25    1
     3    24    22    1
     4    22    19    1
     5    19    20    1
     6    19    21    1
     7    19    18    1
     8    18     1    1
     9     1     2   ar
    10     2    26    1
    11    26    27    1
    12    27    28    1
    13    27    29    1
    14    27    30    1
    15     2     3   ar
    16     3     4   ar
    17     4     5   ar
    18     5     6   ar
    19     6    10    1
    20    10    11    2
    21    11    12    1
    22    12    13    2
    23    12    14   am
    24    14    15    1
    25     6     7   ar
    26     7     8   ar
    27     8     9   ar
    28     9     1   ar
    29     9     4   ar
    30    14    16    1
    31    15    17    1
@<TRIPOS>MOLECULE
*****
 30 31 0 0 0
SMALL
GASTEIGER

@<TRIPOS>ATOM
      1 N          63.2638   89.4810   12.3530 N.ar    1  UNL1       -0.3149
      2 C          64.0452   89.9317   13.5515 C.ar    1  UNL1        0.1203
      3 N          64.4214   88.7149   14.3438 N.ar    1  UNL1       -0.2310
      4 C          63.8726   87.5122   13.6350 C.ar    1  UNL1        0.0983
      5 C          63.9320   86.0471   13.9510 C.ar    1  UNL1        0.0206
      6 C          63.2758   85.0555   13.0366 C.ar    1  UNL1        0.0017
      7 C          62.5603   85.5290   11.8062 C.ar    1  UNL1        0.0016
      8 C          62.5010   86.9941   11.4902 C.ar    1  UNL1        0.0188
      9 C          63.1572   87.9857   12.4046 C.ar    1  UNL1        0.0786
     10 C          63.3351   83.5903   13.3526 C.2     1  UNL1        0.0048
     11 C          62.7395   82.5936   12.4030 C.2     1  UNL1        0.0598
     12 C          62.7988   81.1284   12.7190 C.2     1  UNL1        0.2679
     13 O          62.7814   80.1203   11.6084 O.2     1  UNL1       -0.2681
     14 N          62.8755   80.6713   14.1456 N.am    1  UNL1       -0.1934
     15 O          62.9348   79.2062   14.4615 O.3     1  UNL1       -0.2949
     16 H          62.8869   81.3329   14.8745 H       1  UNL1        0.1825
     17 H          62.9144   78.6964   13.6365 H       1  UNL1        0.2414
     18 C          62.6898   90.3696   11.2896 C.3     1  UNL1        0.1084
     19 C          61.3627   90.0406   10.6729 C.3     1  UNL1        0.0356
     20 C          60.7120   90.1383   12.0209 C.3     1  UNL1        0.0033
     21 C          62.0133   89.9428    9.3249 C.3     1  UNL1        0.0033
     22 C          60.0355   89.7115   10.0562 C.3     1  UNL1        0.0740
     23 C          60.1345   87.2172    9.3355 C.3     1  UNL1        0.0897
     24 N          59.9445   88.6637    8.9866 N.3     1  UNL1       -0.2703
     25 C          59.6637   89.0625    7.5682 C.3     1  UNL1        0.0897
     26 C          64.3897   91.3501   13.8969 C.3     1  UNL1        0.0639
     27 C          65.7587   91.8841   13.5956 C.3     1  UNL1        0.0071
     28 C          65.2779   92.3615   12.2574 C.3     1  UNL1        0.0004
     29 C          66.2395   91.4067   14.9338 C.3     1  UNL1        0.0004
     30 C          67.1277   92.4181   13.2943 C.3     1  UNL1        0.0004
@<TRIPOS>BOND
     1    23    24    1
     2    24    25    1
     3    24    22    1
     4    22    19    1
     5    19    20    1
     6    19    21    1
     7    19    18    1
     8    18     1    1
     9     1     2   ar
    10     2    26    1
    11    26    27    1
    12    27    28    1
    13    27    29    1
    14    27    30    1
    15     2     3   ar
    16     3     4   ar
    17     4     5   ar
    18     5     6   ar
    19     6    10    1
    20    10    11    2
    21    11    12    1
    22    12    13    2
    23    12    14   am
    24    14    15    1
    25     6     7   ar
    26     7     8   ar
    27     8     9   ar
    28     9     1   ar
    29     9     4   ar
    30    14    16    1
    31    15    17    1
@<TRIPOS>MOLECULE
*****
 30 31 0 0 0
SMALL
GASTEIGER

@<TRIPOS>ATOM
      1 N          65.4117   92.9628   12.5689 N.ar    1  UNL1       -0.3149
      2 C          65.6436   93.5896   11.2261 C.ar    1  UNL1        0.1203
      3 N          64.9027   92.7808   10.2029 N.ar    1  UNL1       -0.2310
      4 C          64.2129   91.6542   10.9134 C.ar    1  UNL1        0.0983
      5 C          63.3389   90.5404   10.4177 C.ar    1  UNL1        0.0206
      6 C          62.7796   89.5391   11.3843 C.ar    1  UNL1        0.0017
      7 C          63.0942   89.6515   12.8466 C.ar    1  UNL1        0.0016
      8 C          63.9681   90.7653   13.3423 C.ar    1  UNL1        0.0188
      9 C          64.5275   91.7666   12.3757 C.ar    1  UNL1        0.0786
     10 C          61.9056   88.4252   10.8886 C.2     1  UNL1        0.0048
     11 C          61.2982   88.5012    9.5193 C.2     1  UNL1        0.0598
     12 C          60.4242   87.3873    9.0236 C.2     1  UNL1        0.2679
     13 O          60.7714   85.9632    9.3419 O.2     1  UNL1       -0.2681
     14 N          59.2031   87.6977    8.2097 N.am    1  UNL1       -0.1934
     15 O          58.3292   86.5838    7.7141 O.3     1  UNL1       -0.2949
     16 H          58.9752   88.6324    8.0008 H       1  UNL1        0.1825
     17 H          58.6929   85.7332    8.0058 H       1  UNL1        0.2414
     18 C          65.9666   93.4470   13.8757 C.3     1  UNL1        0.1084
     19 C          66.9790   92.6214   14.6127 C.3     1  UNL1        0.0356
     20 C          66.1885   92.7810   15.8775 C.3     1  UNL1        0.0033
     21 C          67.7696   92.4618   13.3479 C.3     1  UNL1        0.0033
     22 C          67.9915   91.7958   15.3497 C.3     1  UNL1        0.0740
     23 C          69.9322   91.6623   17.0719 C.3     1  UNL1        0.0897
     24 N          69.0736   92.4674   16.1422 N.3     1  UNL1       -0.2703
     25 C          69.2970   93.9443   16.0049 C.3     1  UNL1        0.0897
     26 C          66.4711   94.8108   10.9542 C.3     1  UNL1        0.0639
     27 C          66.6302   95.3114    9.5492 C.3     1  UNL1        0.0071
     28 C          65.4998   96.2736    9.7640 C.3     1  UNL1        0.0004
     29 C          67.7606   94.3491    9.3344 C.3     1  UNL1        0.0004
     30 C          66.7894   95.8119    8.1441 C.3     1  UNL1        0.0004
@<TRIPOS>BOND
     1    23    24    1
     2    24    25    1
     3    24    22    1
     4    22    19    1
     5    19    20    1
     6    19    21    1
     7    19    18    1
     8    18     1    1
     9     1     2   ar
    10     2    26    1
    11    26    27    1
    12    27    28    1
    13    27    29    1
    14    27    30    1
    15     2     3   ar
    16     3     4   ar
    17     4     5   ar
    18     5     6   ar
    19     6    10    1
    20    10    11    2
    21    11    12    1
    22    12    13    2
    23    12    14   am
    24    14    15    1
    25     6     7   ar
    26     7     8   ar
    27     8     9   ar
    28     9     1   ar
    29     9     4   ar
    30    14    16    1
    31    15    17    1
@<TRIPOS>MOLECULE
*****
 30 31 0 0 0
SMALL
GASTEIGER

@<TRIPOS>ATOM
      1 N          64.4740   89.4388   14.1383 N.ar    1  UNL1       -0.3149
      2 C          64.6905   90.9132   14.3094 C.ar    1  UNL1        0.1203
      3 N          63.9342   91.6216   13.2249 N.ar    1  UNL1       -0.2310
      4 C          63.2504   90.5851   12.3835 C.ar    1  UNL1        0.0983
      5 C          62.3670   90.6954   11.1763 C.ar    1  UNL1        0.0206
      6 C          61.8172   89.4566   10.5336 C.ar    1  UNL1        0.0017
      7 C          62.1509   88.1075   11.0981 C.ar    1  UNL1        0.0016
      8 C          63.0342   87.9972   12.3053 C.ar    1  UNL1        0.0188
      9 C          63.5840   89.2360   12.9480 C.ar    1  UNL1        0.0786
     10 C          60.9338   89.5669    9.3263 C.2     1  UNL1        0.0048
     11 C          60.2501   88.3472    8.7833 C.2     1  UNL1        0.0598
     12 C          59.3667   88.4574    7.5760 C.2     1  UNL1        0.2679
     13 O          58.4418   87.3320    7.2182 O.2     1  UNL1       -0.2681
     14 N          59.4082   89.6930    6.7266 N.am    1  UNL1       -0.1934
     15 O          58.5248   89.8032    5.5194 O.3     1  UNL1       -0.2949
     16 H          60.0152   90.4317    6.9615 H       1  UNL1        0.1825
     17 H          57.9942   88.9959    5.4322 H       1  UNL1        0.2414
     18 C          65.0470   88.3571   15.0052 C.3     1  UNL1        0.1084
     19 C          64.1913   87.1978   15.4219 C.3     1  UNL1        0.0356
     20 C          65.0871   86.2639   14.6634 C.3     1  UNL1        0.0033
     21 C          63.2955   88.1317   16.1806 C.3     1  UNL1        0.0033
     22 C          63.3356   86.0385   15.8387 C.3     1  UNL1        0.0740
     23 C          63.9290   83.5504   15.3829 C.3     1  UNL1        0.0897
     24 N          63.2470   84.8203   14.9679 N.3     1  UNL1       -0.2703
     25 C          62.4763   84.8721   13.6821 C.3     1  UNL1        0.0897
     26 C          65.5179   91.5648   15.3775 C.3     1  UNL1        0.0639
     27 C          66.8703   92.1211   15.0438 C.3     1  UNL1        0.0071
     28 C          66.9470   92.7502   16.4032 C.3     1  UNL1        0.0004
     29 C          66.7936   91.4919   13.6843 C.3     1  UNL1        0.0004
     30 C          68.2228   92.6774   14.7099 C.3     1  UNL1        0.0004
@<TRIPOS>BOND
     1    23    24    1
     2    24    25    1
     3    24    22    1
     4    22    19    1
     5    19    20    1
     6    19    21    1
     7    19    18    1
     8    18     1    1
     9     1     2   ar
    10     2    26    1
    11    26    27    1
    12    27    28    1
    13    27    29    1
    14    27    30    1
    15     2     3   ar
    16     3     4   ar
    17     4     5   ar
    18     5     6   ar
    19     6    10    1
    20    10    11    2
    21    11    12    1
    22    12    13    2
    23    12    14   am
    24    14    15    1
    25     6     7   ar
    26     7     8   ar
    27     8     9   ar
    28     9     1   ar
    29     9     4   ar
    30    14    16    1
    31    15    17    1
