@<TRIPOS>MOLECULE
*****
 50 57 0 0 0
SMALL
GASTEIGER

@<TRIPOS>ATOM
      1 C          65.2404   91.2441   13.9160 C.3     1  UNL1        0.1420
      2 O          65.8077   92.4778   13.2789 O.3     1  UNL1       -0.3753
      3 C          64.9880   90.1488   14.9093 C.3     1  UNL1        0.0395
      4 C          63.9499   89.2315   14.3340 C.3     1  UNL1        0.0035
      5 C          63.5608   89.7598   12.9852 C.3     1  UNL1        0.0032
      6 C          62.5833   89.2689   11.9587 C.3     1  UNL1        0.0001
      7 C          61.7858   88.0251   12.2170 C.3     1  UNL1        0.0000
      8 C          60.8083   87.5342   11.1906 C.3     1  UNL1        0.0001
      9 C          60.6284   88.2872    9.9059 C.3     1  UNL1        0.0025
     10 C          59.6508   87.7963    8.8794 C.3     1  UNL1        0.0306
     11 C          59.4709   88.5493    7.5947 C.3     1  UNL1        0.1250
     12 O          58.4934   88.0585    6.5683 O.3     1  UNL1       -0.3831
     13 C          60.2684   89.7932    7.3364 C.3     1  UNL1        0.0845
     14 C          61.2459   90.2840    8.3628 C.3     1  UNL1        0.0184
     15 C          61.4259   89.5310    9.6475 C.3     1  UNL1        0.0015
     16 C          62.2234   90.7749    9.3892 C.3     1  UNL1        0.0000
     17 C          62.4034   90.0219   10.6740 C.3     1  UNL1        0.0000
     18 C          63.2009   91.2657   10.4157 C.3     1  UNL1        0.0001
     19 C          64.1785   91.7566   11.4421 C.3     1  UNL1        0.0032
     20 C          64.3584   91.0036   12.7268 C.3     1  UNL1        0.0333
     21 C          65.1442   92.2500   12.4452 C.3     1  UNL1        0.0033
     22 H          66.4618   92.8772   13.8735 H       1  UNL1        0.2114
     23 H          58.0653   87.2498    6.8902 H       1  UNL1        0.2104
     24 N          60.0885   90.5462    6.0515 N.3     1  UNL1       -0.2689
     25 C          61.2812   90.8841    5.2070 C.3     1  UNL1        0.0939
     26 C          61.1013   91.6371    3.9222 C.3     1  UNL1        0.1108
     27 N          59.7287   92.0522    3.4821 N.am    1  UNL1       -0.2754
     28 C          59.5487   92.8052    2.1973 C.2     1  UNL1        0.2438
     29 O          58.1761   93.2203    1.7572 O.2     1  UNL1       -0.2731
     30 C          58.5361   91.7143    4.3267 C.3     1  UNL1        0.1108
     31 C          58.7160   90.9613    5.6114 C.3     1  UNL1        0.0939
     32 C          60.7415   93.1431    1.3527 C.3     1  UNL1        0.1523
     33 C          62.1549   93.2775    1.8365 C.3     1  UNL1        0.0310
     34 C          63.0171   93.6234    0.6588 C.3     1  UNL1        0.0237
     35 C          62.1365   93.7027   -0.5529 C.3     1  UNL1        0.0942
     36 N          60.7301   93.4059   -0.1241 N.am    1  UNL1       -0.2682
     37 C          59.5240   93.3769   -1.0155 C.2     1  UNL1        0.2671
     38 O          58.1743   93.0629   -0.4413 O.2     1  UNL1       -0.2682
     39 C          59.6676   93.6619   -2.4811 C.ar    1  UNL1        0.1346
     40 C          58.4546   93.6843   -3.3633 C.ar    1  UNL1        0.0238
     41 C          58.5983   93.9693   -4.8289 C.ar    1  UNL1        0.0032
     42 C          59.9549   94.2320   -5.4124 C.ar    1  UNL1        0.0177
     43 C          60.0985   94.5171   -6.8781 C.ar    1  UNL1        0.0015
     44 C          61.4552   94.7798   -7.4616 C.ar    1  UNL1        0.0001
     45 C          62.6681   94.7575   -6.5795 C.ar    1  UNL1        0.0015
     46 C          62.5245   94.4725   -5.1139 C.ar    1  UNL1        0.0191
     47 C          61.1679   94.2097   -4.5303 C.ar    1  UNL1        0.0814
     48 N          61.0243   93.9247   -3.0647 N.ar    1  UNL1       -0.2408
     49 C          67.1954   92.2258   15.9689 C.1     1  UNL1       -0.0119
     50 C          66.2179   91.7349   14.9425 C.1     1  UNL1       -0.0526
@<TRIPOS>BOND
     1    49    50    3
     2    50     1    1
     3     1     2    1
     4     1     3    1
     5     3     4    1
     6     5     4    1
     7     5     6    1
     8     6     7    1
     9     7     8    1
    10     9     8    1
    11     9    10    1
    12    10    11    1
    13    11    12    1
    14    11    13    1
    15    13    24    1
    16    24    25    1
    17    25    26    1
    18    26    27    1
    19    27    28   am
    20    28    29    2
    21    32    28    1
    22    32    33    1
    23    33    34    1
    24    34    35    1
    25    35    36    1
    26    36    37   am
    27    37    38    2
    28    37    39    1
    29    39    40   ar
    30    40    41   ar
    31    41    42   ar
    32    42    43   ar
    33    43    44   ar
    34    44    45   ar
    35    45    46   ar
    36    46    47   ar
    37    47    48   ar
    38    27    30    1
    39    30    31    1
    40    13    14    1
    41    14    15    1
    42    15    16    1
    43    15    17    1
    44    17    18    1
    45    18    19    1
    46    19    20    1
    47    20    21    1
    48    20     1    1
    49    20     5    1
    50    17     6    1
    51    15     9    1
    52    31    24    1
    53    36    32    1
    54    48    39   ar
    55    47    42   ar
    56     2    22    1
    57    12    23    1
@<TRIPOS>MOLECULE
*****
 50 57 0 0 0
SMALL
GASTEIGER

@<TRIPOS>ATOM
      1 C          65.3096   91.2112   14.0645 C.3     1  UNL1        0.1420
      2 O          65.7188   92.5077   13.4308 O.3     1  UNL1       -0.3753
      3 C          65.2135   90.0797   15.0445 C.3     1  UNL1        0.0395
      4 C          64.2536   89.0681   14.4919 C.3     1  UNL1        0.0035
      5 C          63.7564   89.5745   13.1704 C.3     1  UNL1        0.0032
      6 C          62.7938   89.0006   12.1734 C.3     1  UNL1        0.0001
      7 C          62.1411   87.6761   12.4376 C.3     1  UNL1        0.0000
      8 C          61.1785   87.1022   11.4406 C.3     1  UNL1        0.0001
      9 C          60.8684   87.8529   10.1795 C.3     1  UNL1        0.0025
     10 C          59.9057   87.2789    9.1825 C.3     1  UNL1        0.0306
     11 C          59.5957   88.0296    7.9214 C.3     1  UNL1        0.1250
     12 O          58.6330   87.4557    6.9245 O.3     1  UNL1       -0.3831
     13 C          60.2483   89.3541    7.6573 C.3     1  UNL1        0.0845
     14 C          61.2109   89.9280    8.6543 C.3     1  UNL1        0.0184
     15 C          61.5210   89.1773    9.9154 C.3     1  UNL1        0.0015
     16 C          62.1736   90.5018    9.6512 C.3     1  UNL1        0.0000
     17 C          62.4837   89.7512   10.9123 C.3     1  UNL1        0.0000
     18 C          63.1363   91.0757   10.6482 C.3     1  UNL1        0.0001
     19 C          64.0990   91.6496   11.6452 C.3     1  UNL1        0.0032
     20 C          64.4090   90.8990   12.9062 C.3     1  UNL1        0.0333
     21 C          65.0487   92.2251   12.6193 C.3     1  UNL1        0.0033
     22 H          66.3518   92.9637   14.0072 H       1  UNL1        0.2114
     23 H          58.3049   86.6016    7.2465 H       1  UNL1        0.2104
     24 N          59.9382   90.1048    6.3961 N.3     1  UNL1       -0.2689
     25 C          61.0449   90.4810    5.4561 C.3     1  UNL1        0.0939
     26 C          60.7348   91.2317    4.1949 C.3     1  UNL1        0.1108
     27 N          59.3181   91.6060    3.8740 N.am    1  UNL1       -0.2754
     28 C          59.0080   92.3567    2.6129 C.2     1  UNL1        0.2438
     29 O          57.5914   92.7310    2.2919 O.2     1  UNL1       -0.2731
     30 C          58.2116   91.2297    4.8141 C.3     1  UNL1        0.1108
     31 C          58.5216   90.4791    6.0752 C.3     1  UNL1        0.0939
     32 C          60.1147   92.7330    1.6727 C.3     1  UNL1        0.1523
     33 C          61.5606   92.9008    2.0350 C.3     1  UNL1        0.0310
     34 C          62.3092   93.2790    0.7914 C.3     1  UNL1        0.0237
     35 C          61.3259   93.3450   -0.3395 C.3     1  UNL1        0.0942
     36 N          59.9697   93.0075    0.2052 N.am    1  UNL1       -0.2682
     37 C          58.6926   92.9539   -0.5799 C.2     1  UNL1        0.2671
     38 O          57.4058   92.5995    0.1046 O.2     1  UNL1       -0.2682
     39 C          58.7023   93.2546   -2.0494 C.ar    1  UNL1        0.1346
     40 C          59.5050   94.4083   -2.5735 C.ar    1  UNL1        0.0238
     41 C          59.5148   94.7091   -4.0430 C.ar    1  UNL1        0.0032
     42 C          58.7219   93.8562   -4.9884 C.ar    1  UNL1        0.0177
     43 C          58.7317   94.1570   -6.4579 C.ar    1  UNL1        0.0015
     44 C          57.9387   93.3040   -7.4033 C.ar    1  UNL1        0.0001
     45 C          57.1361   92.1503   -6.8792 C.ar    1  UNL1        0.0015
     46 C          57.1263   91.8495   -5.4097 C.ar    1  UNL1        0.0191
     47 C          57.9192   92.7024   -4.4643 C.ar    1  UNL1        0.0814
     48 N          57.9094   92.4017   -2.9948 N.ar    1  UNL1       -0.2408
     49 C          67.2349   92.3590   16.0584 C.1     1  UNL1       -0.0119
     50 C          66.2722   91.7851   15.0614 C.1     1  UNL1       -0.0526
@<TRIPOS>BOND
     1    49    50    3
     2    50     1    1
     3     1     2    1
     4     1     3    1
     5     3     4    1
     6     5     4    1
     7     5     6    1
     8     6     7    1
     9     7     8    1
    10     9     8    1
    11     9    10    1
    12    10    11    1
    13    11    12    1
    14    11    13    1
    15    13    24    1
    16    24    25    1
    17    25    26    1
    18    26    27    1
    19    27    28   am
    20    28    29    2
    21    32    28    1
    22    32    33    1
    23    33    34    1
    24    34    35    1
    25    35    36    1
    26    36    37   am
    27    37    38    2
    28    37    39    1
    29    39    40   ar
    30    40    41   ar
    31    41    42   ar
    32    42    43   ar
    33    43    44   ar
    34    44    45   ar
    35    45    46   ar
    36    46    47   ar
    37    47    48   ar
    38    27    30    1
    39    30    31    1
    40    13    14    1
    41    14    15    1
    42    15    16    1
    43    15    17    1
    44    17    18    1
    45    18    19    1
    46    19    20    1
    47    20    21    1
    48    20     1    1
    49    20     5    1
    50    17     6    1
    51    15     9    1
    52    31    24    1
    53    36    32    1
    54    48    39   ar
    55    47    42   ar
    56     2    22    1
    57    12    23    1
@<TRIPOS>MOLECULE
*****
 50 57 0 0 0
SMALL
GASTEIGER

@<TRIPOS>ATOM
      1 C          64.1567   93.6017   -3.9361 C.3     1  UNL1        0.1420
      2 O          64.4364   92.1283   -3.9110 O.3     1  UNL1       -0.3753
      3 C          64.1235   95.0315   -4.3885 C.3     1  UNL1        0.0395
      4 C          63.3879   95.8286   -3.3524 C.3     1  UNL1        0.0035
      5 C          62.9665   94.8915   -2.2596 C.3     1  UNL1        0.0032
      6 C          62.2115   95.1135   -0.9826 C.3     1  UNL1        0.0001
      7 C          61.7363   96.4897   -0.6218 C.3     1  UNL1        0.0000
      8 C          60.9813   96.7118    0.6551 C.3     1  UNL1        0.0001
      9 C          60.7015   95.5575    1.5713 C.3     1  UNL1        0.0025
     10 C          59.9464   95.7796    2.8483 C.3     1  UNL1        0.0306
     11 C          59.6665   94.6254    3.7645 C.3     1  UNL1        0.1250
     12 O          58.9115   94.8474    5.0414 O.3     1  UNL1       -0.3831
     13 C          60.1416   93.2491    3.4037 C.3     1  UNL1        0.0845
     14 C          60.8967   93.0271    2.1267 C.3     1  UNL1        0.0184
     15 C          61.1765   94.1813    1.2105 C.3     1  UNL1        0.0015
     16 C          61.6517   92.8051    0.8497 C.3     1  UNL1        0.0000
     17 C          61.9316   93.9592   -0.0665 C.3     1  UNL1        0.0000
     18 C          62.4067   92.5831   -0.4272 C.3     1  UNL1        0.0001
     19 C          63.1617   92.3610   -1.7043 C.3     1  UNL1        0.0032
     20 C          63.4416   93.5152   -2.6204 C.3     1  UNL1        0.0333
     21 C          63.9062   92.1297   -2.9590 C.3     1  UNL1        0.0033
     22 H          64.9297   91.8792   -4.7081 H       1  UNL1        0.2114
     23 H          58.6800   95.7860    5.1212 H       1  UNL1        0.2104
     24 N          59.8617   92.0948    4.3199 N.3     1  UNL1       -0.2689
     25 C          60.9975   91.3037    4.8979 C.3     1  UNL1        0.0939
     26 C          60.7176   90.1494    5.8142 C.3     1  UNL1        0.1108
     27 N          59.3020   89.7864    6.1522 N.am    1  UNL1       -0.2754
     28 C          59.0221   88.6321    7.0684 C.2     1  UNL1        0.2438
     29 O          57.6065   88.2691    7.4065 O.2     1  UNL1       -0.2731
     30 C          58.1663   90.5776    5.5741 C.3     1  UNL1        0.1108
     31 C          58.4462   91.7318    4.6580 C.3     1  UNL1        0.0939
     32 C          60.1579   87.8410    7.6465 C.3     1  UNL1        0.1523
     33 C          60.5801   86.4655    7.2224 C.3     1  UNL1        0.0310
     34 C          61.7540   86.0609    8.0640 C.3     1  UNL1        0.0237
     35 C          62.0573   87.1863    9.0082 C.3     1  UNL1        0.0942
     36 N          61.0709   88.2864    8.7502 N.am    1  UNL1       -0.2682
     37 C          61.0083   89.6013    9.4695 C.2     1  UNL1        0.2671
     38 O          59.9605   90.6090    9.1004 O.2     1  UNL1       -0.2682
     39 C          61.9937   89.9082   10.5580 C.ar    1  UNL1        0.1346
     40 C          61.9781   89.1132   11.8299 C.ar    1  UNL1        0.0238
     41 C          62.9635   89.4202   12.9184 C.ar    1  UNL1        0.0032
     42 C          63.9644   90.5222   12.7350 C.ar    1  UNL1        0.0177
     43 C          64.9498   90.8291   13.8235 C.ar    1  UNL1        0.0015
     44 C          65.9508   91.9312   13.6401 C.ar    1  UNL1        0.0001
     45 C          65.9663   92.7262   12.3683 C.ar    1  UNL1        0.0015
     46 C          64.9810   92.4193   11.2798 C.ar    1  UNL1        0.0191
     47 C          63.9800   91.3173   11.4631 C.ar    1  UNL1        0.0814
     48 N          62.9947   91.0103   10.3746 N.ar    1  UNL1       -0.2408
     49 C          65.6667   93.1577   -6.4901 C.1     1  UNL1       -0.0119
     50 C          64.9117   93.3797   -5.2131 C.1     1  UNL1       -0.0526
@<TRIPOS>BOND
     1    49    50    3
     2    50     1    1
     3     1     2    1
     4     1     3    1
     5     3     4    1
     6     5     4    1
     7     5     6    1
     8     6     7    1
     9     7     8    1
    10     9     8    1
    11     9    10    1
    12    10    11    1
    13    11    12    1
    14    11    13    1
    15    13    24    1
    16    24    25    1
    17    25    26    1
    18    26    27    1
    19    27    28   am
    20    28    29    2
    21    32    28    1
    22    32    33    1
    23    33    34    1
    24    34    35    1
    25    35    36    1
    26    36    37   am
    27    37    38    2
    28    37    39    1
    29    39    40   ar
    30    40    41   ar
    31    41    42   ar
    32    42    43   ar
    33    43    44   ar
    34    44    45   ar
    35    45    46   ar
    36    46    47   ar
    37    47    48   ar
    38    27    30    1
    39    30    31    1
    40    13    14    1
    41    14    15    1
    42    15    16    1
    43    15    17    1
    44    17    18    1
    45    18    19    1
    46    19    20    1
    47    20    21    1
    48    20     1    1
    49    20     5    1
    50    17     6    1
    51    15     9    1
    52    31    24    1
    53    36    32    1
    54    48    39   ar
    55    47    42   ar
    56     2    22    1
    57    12    23    1
