@<TRIPOS>MOLECULE
*****
 28 32 0 0 0
SMALL
GASTEIGER

@<TRIPOS>ATOM
      1 C          64.1205   90.0514   13.5437 C.3     1  UNL1        0.0581
      2 C          63.3210   90.5082   12.3596 C.3     1  UNL1        0.0163
      3 C          62.7380   89.2948   11.6980 C.3     1  UNL1        0.0058
      4 C          63.1772   88.0881   12.4732 C.3     1  UNL1        0.0240
      5 C          63.7442   87.0585   13.4051 C.3     1  UNL1        0.0301
      6 C          63.5778   85.5683   13.3654 C.ar    1  UNL1       -0.0255
      7 C          64.3157   84.9043   14.4899 C.ar    1  UNL1       -0.0046
      8 C          64.2790   83.4117   14.6331 C.ar    1  UNL1       -0.0003
      9 C          63.5043   82.5829   13.6517 C.ar    1  UNL1       -0.0003
     10 C          62.7664   83.2469   12.5271 C.ar    1  UNL1       -0.0042
     11 C          62.8032   84.7396   12.3840 C.ar    1  UNL1       -0.0217
     12 C          62.0037   85.1964   11.1999 C.3     1  UNL1        0.0520
     13 C          61.7813   86.5948   10.7047 C.ar    1  UNL1       -0.0218
     14 C          60.9132   86.6115    9.4816 C.ar    1  UNL1       -0.0042
     15 C          60.5674   87.9151    8.8251 C.ar    1  UNL1       -0.0003
     16 C          61.0897   89.2020    9.3917 C.ar    1  UNL1       -0.0003
     17 C          61.9578   89.1853   10.6149 C.ar    1  UNL1       -0.0046
     18 C          62.3036   87.8817   11.2714 C.ar    1  UNL1       -0.0261
     19 C          64.0316   88.5556   13.6139 C.3     1  UNL1        0.0203
     20 C          67.0329   92.2440   15.1123 C.2     1  UNL1        0.0036
     21 C          66.3876   92.7026   16.3864 C.2     1  UNL1       -0.0265
     22 C          64.9867   92.2776   16.7130 C.3     1  UNL1        0.0431
     23 C          64.2310   91.3938   15.7654 C.3     1  UNL1        0.0770
     24 N          64.8762   90.9351   14.4913 N.3     1  UNL1       -0.2699
     25 C          66.2772   91.3603   14.1648 C.3     1  UNL1        0.0999
     26 O          69.1542   93.6309   15.6837 O.co2   1  UNL1       -0.5449
     27 C          68.4339   92.6691   14.7858 C.2     1  UNL1        0.0699
     28 O          69.1145   92.1325   13.5616 O.co2   1  UNL1       -0.5449
@<TRIPOS>UNITY_ATOM_ATTR
26 1
charge -1
@<TRIPOS>BOND
     1    26    27   ar
     2    27    28   ar
     3    27    20    1
     4    20    21    2
     5    21    22    1
     6    22    23    1
     7    23    24    1
     8    24     1    1
     9     1     2    1
    10     2     3    1
    11     4     3    1
    12     4     5    1
    13     5     6    1
    14     6     7   ar
    15     7     8   ar
    16     8     9   ar
    17     9    10   ar
    18    10    11   ar
    19    11    12    1
    20    12    13    1
    21    13    14   ar
    22    14    15   ar
    23    15    16   ar
    24    16    17   ar
    25    17    18   ar
    26     4    19    1
    27    24    25    1
    28    25    20    1
    29    19     1    1
    30    18     4    1
    31    11     6   ar
    32    18    13   ar
@<TRIPOS>MOLECULE
*****
 28 32 0 0 0
SMALL
GASTEIGER

@<TRIPOS>ATOM
      1 C          64.2889   88.8677   14.2363 C.3     1  UNL1        0.0581
      2 C          64.6311   87.4820   14.6975 C.3     1  UNL1        0.0163
      3 C          63.9839   86.5079   13.7584 C.3     1  UNL1        0.0058
      4 C          63.2416   87.2915   12.7167 C.3     1  UNL1        0.0240
      5 C          62.5898   88.2908   11.8076 C.3     1  UNL1        0.0301
      6 C          61.7417   88.0395   10.5961 C.ar    1  UNL1       -0.0255
      7 C          61.2854   89.3242    9.9706 C.ar    1  UNL1       -0.0046
      8 C          60.4234   89.2960    8.7434 C.ar    1  UNL1       -0.0003
      9 C          60.0177   87.9832    8.1417 C.ar    1  UNL1       -0.0003
     10 C          60.4741   86.6986    8.7673 C.ar    1  UNL1       -0.0042
     11 C          61.3361   86.7267    9.9945 C.ar    1  UNL1       -0.0217
     12 C          61.6783   85.3410   10.4558 C.3     1  UNL1        0.0520
     13 C          62.5106   84.9258   11.6326 C.ar    1  UNL1       -0.0218
     14 C          62.6043   83.4325   11.7381 C.ar    1  UNL1       -0.0042
     15 C          63.3936   82.8072   12.8498 C.ar    1  UNL1       -0.0003
     16 C          64.0893   83.6752   13.8560 C.ar    1  UNL1       -0.0003
     17 C          63.9957   85.1686   13.7505 C.ar    1  UNL1       -0.0046
     18 C          63.2064   85.7939   12.6388 C.ar    1  UNL1       -0.0261
     19 C          63.4302   88.7500   13.0120 C.3     1  UNL1        0.0203
     20 C          66.4677   92.0600   15.1373 C.2     1  UNL1        0.0036
     21 C          65.6072   92.7045   16.1834 C.2     1  UNL1       -0.0265
     22 C          64.3072   92.0701   16.5803 C.3     1  UNL1        0.0431
     23 C          63.8678   90.7912   15.9313 C.3     1  UNL1        0.0770
     24 N          64.7283   90.1466   14.8853 N.3     1  UNL1       -0.2699
     25 C          66.0283   90.7812   14.4883 C.3     1  UNL1        0.0999
     26 O          68.3887   93.7427   15.6155 O.co2   1  UNL1       -0.5449
     27 C          67.7677   92.6945   14.7404 C.2     1  UNL1        0.0699
     28 O          68.4467   92.2809   13.4684 O.co2   1  UNL1       -0.5449
@<TRIPOS>UNITY_ATOM_ATTR
26 1
charge -1
@<TRIPOS>BOND
     1    26    27   ar
     2    27    28   ar
     3    27    20    1
     4    20    21    2
     5    21    22    1
     6    22    23    1
     7    23    24    1
     8    24     1    1
     9     1     2    1
    10     2     3    1
    11     4     3    1
    12     4     5    1
    13     5     6    1
    14     6     7   ar
    15     7     8   ar
    16     8     9   ar
    17     9    10   ar
    18    10    11   ar
    19    11    12    1
    20    12    13    1
    21    13    14   ar
    22    14    15   ar
    23    15    16   ar
    24    16    17   ar
    25    17    18   ar
    26     4    19    1
    27    24    25    1
    28    25    20    1
    29    19     1    1
    30    18     4    1
    31    11     6   ar
    32    18    13   ar
@<TRIPOS>MOLECULE
*****
 28 32 0 0 0
SMALL
GASTEIGER

@<TRIPOS>ATOM
      1 C          63.9760   90.6904   12.2483 C.3     1  UNL1        0.0581
      2 C          63.0386   90.8587   11.0896 C.3     1  UNL1        0.0163
      3 C          62.3976   89.5307   10.8153 C.3     1  UNL1        0.0058
      4 C          62.9389   88.5416   11.8046 C.3     1  UNL1        0.0240
      5 C          63.6233   87.7603   12.8868 C.3     1  UNL1        0.0301
      6 C          63.4718   86.3081   13.2306 C.ar    1  UNL1       -0.0255
      7 C          64.3438   85.9254   14.3896 C.ar    1  UNL1       -0.0046
      8 C          64.3424   84.5132   14.8949 C.ar    1  UNL1       -0.0003
      9 C          63.4691   83.4835   14.2413 C.ar    1  UNL1       -0.0003
     10 C          62.5972   83.8662   13.0824 C.ar    1  UNL1       -0.0042
     11 C          62.5985   85.2784   12.5770 C.ar    1  UNL1       -0.0217
     12 C          61.6610   85.4468   11.4182 C.3     1  UNL1        0.0520
     13 C          61.3652   86.6862   10.6268 C.ar    1  UNL1       -0.0218
     14 C          60.3606   86.4193    9.5455 C.ar    1  UNL1       -0.0042
     15 C          59.9246   87.5297    8.6361 C.ar    1  UNL1       -0.0003
     16 C          60.4933   88.9069    8.8080 C.ar    1  UNL1       -0.0003
     17 C          61.4980   89.1739    9.8894 C.ar    1  UNL1       -0.0046
     18 C          61.9340   88.0635   10.7988 C.ar    1  UNL1       -0.0261
     19 C          63.9145   89.2583   12.6903 C.3     1  UNL1        0.0203
     20 C          66.0686   94.0380   12.6544 C.2     1  UNL1        0.0036
     21 C          66.5257   93.9157   14.0778 C.2     1  UNL1       -0.0265
     22 C          66.1329   92.7184   14.8915 C.3     1  UNL1        0.0431
     23 C          65.2830   91.6433   14.2816 C.3     1  UNL1        0.0770
     24 N          64.8259   91.7655   12.8582 N.3     1  UNL1       -0.2699
     25 C          65.2188   92.9630   12.0446 C.3     1  UNL1        0.0999
     26 O          67.3120   95.0645   10.6171 O.co2   1  UNL1       -0.5449
     27 C          66.4615   95.2355   11.8408 C.2     1  UNL1        0.0699
     28 O          66.0039   96.6038   12.2509 O.co2   1  UNL1       -0.5449
@<TRIPOS>UNITY_ATOM_ATTR
26 1
charge -1
@<TRIPOS>BOND
     1    26    27   ar
     2    27    28   ar
     3    27    20    1
     4    20    21    2
     5    21    22    1
     6    22    23    1
     7    23    24    1
     8    24     1    1
     9     1     2    1
    10     2     3    1
    11     4     3    1
    12     4     5    1
    13     5     6    1
    14     6     7   ar
    15     7     8   ar
    16     8     9   ar
    17     9    10   ar
    18    10    11   ar
    19    11    12    1
    20    12    13    1
    21    13    14   ar
    22    14    15   ar
    23    15    16   ar
    24    16    17   ar
    25    17    18   ar
    26     4    19    1
    27    24    25    1
    28    25    20    1
    29    19     1    1
    30    18     4    1
    31    11     6   ar
    32    18    13   ar
@<TRIPOS>MOLECULE
*****
 28 32 0 0 0
SMALL
GASTEIGER

@<TRIPOS>ATOM
      1 C          63.9098   90.7947   12.0039 C.3     1  UNL1        0.0581
      2 C          62.9560   91.0172   10.8679 C.3     1  UNL1        0.0163
      3 C          62.2773   89.7131   10.5703 C.3     1  UNL1        0.0058
      4 C          62.8117   88.6846   11.5225 C.3     1  UNL1        0.0240
      5 C          63.4959   87.8578   12.5704 C.3     1  UNL1        0.0301
      6 C          63.3146   86.4009   12.8781 C.ar    1  UNL1       -0.0255
      7 C          64.1976   85.9657   14.0098 C.ar    1  UNL1       -0.0046
      8 C          64.1703   84.5407   14.4772 C.ar    1  UNL1       -0.0003
      9 C          63.2599   83.5508   13.8129 C.ar    1  UNL1       -0.0003
     10 C          62.3768   83.9860   12.6812 C.ar    1  UNL1       -0.0042
     11 C          62.4042   85.4110   12.2138 C.ar    1  UNL1       -0.0217
     12 C          61.4503   85.6336   11.0777 C.3     1  UNL1        0.0520
     13 C          61.1711   86.9009   10.3254 C.ar    1  UNL1       -0.0218
     14 C          60.1406   86.6880    9.2564 C.ar    1  UNL1       -0.0042
     15 C          59.7160   87.8330    8.3854 C.ar    1  UNL1       -0.0003
     16 C          60.3218   89.1908    8.5833 C.ar    1  UNL1       -0.0003
     17 C          61.3524   89.4037    9.6523 C.ar    1  UNL1       -0.0046
     18 C          61.7770   88.2587   10.5234 C.ar    1  UNL1       -0.0261
     19 C          63.8207   89.3530   12.4085 C.3     1  UNL1        0.0203
     20 C          66.0728   92.7548   14.6927 C.2     1  UNL1        0.0036
     21 C          66.5718   93.9059   13.8706 C.2     1  UNL1       -0.0265
     22 C          66.1835   94.0200   12.4262 C.3     1  UNL1        0.0431
     23 C          65.2962   92.9829   11.8040 C.3     1  UNL1        0.0770
     24 N          64.7972   91.8318   12.6261 N.3     1  UNL1       -0.2699
     25 C          65.1855   91.7178   14.0705 C.3     1  UNL1        0.0999
     26 O          67.9050   92.4929   16.5161 O.co2   1  UNL1       -0.5449
     27 C          66.4611   92.6408   16.1371 C.2     1  UNL1        0.0699
     28 O          65.4057   92.6746   17.2025 O.co2   1  UNL1       -0.5449
@<TRIPOS>UNITY_ATOM_ATTR
26 1
charge -1
@<TRIPOS>BOND
     1    26    27   ar
     2    27    28   ar
     3    27    20    1
     4    20    21    2
     5    21    22    1
     6    22    23    1
     7    23    24    1
     8    24     1    1
     9     1     2    1
    10     2     3    1
    11     4     3    1
    12     4     5    1
    13     5     6    1
    14     6     7   ar
    15     7     8   ar
    16     8     9   ar
    17     9    10   ar
    18    10    11   ar
    19    11    12    1
    20    12    13    1
    21    13    14   ar
    22    14    15   ar
    23    15    16   ar
    24    16    17   ar
    25    17    18   ar
    26     4    19    1
    27    24    25    1
    28    25    20    1
    29    19     1    1
    30    18     4    1
    31    11     6   ar
    32    18    13   ar
@<TRIPOS>MOLECULE
*****
 28 32 0 0 0
SMALL
GASTEIGER

@<TRIPOS>ATOM
      1 C          61.4277   88.5779   10.1087 C.3     1  UNL1        0.0581
      2 C          61.9611   89.9022   10.5688 C.3     1  UNL1        0.0163
      3 C          62.8150   89.6630   11.7785 C.3     1  UNL1        0.0058
      4 C          62.8095   88.1908   12.0660 C.3     1  UNL1        0.0240
      5 C          62.6434   86.7018   12.1385 C.3     1  UNL1        0.0301
      6 C          63.2312   85.7423   13.1305 C.ar    1  UNL1       -0.0255
      7 C          62.8118   84.3312   12.8428 C.ar    1  UNL1       -0.0046
      8 C          63.2915   83.2127   13.7195 C.ar    1  UNL1       -0.0003
      9 C          64.1906   83.5053   14.8840 C.ar    1  UNL1       -0.0003
     10 C          64.6100   84.9164   15.1717 C.ar    1  UNL1       -0.0042
     11 C          64.1303   86.0349   14.2950 C.ar    1  UNL1       -0.0217
     12 C          64.6636   87.3593   14.7551 C.3     1  UNL1        0.0520
     13 C          64.4296   88.7181   14.1644 C.ar    1  UNL1       -0.0218
     14 C          65.1528   89.7826   14.9349 C.ar    1  UNL1       -0.0042
     15 C          65.0509   91.2172   14.5087 C.ar    1  UNL1       -0.0003
     16 C          64.2258   91.5872   13.3121 C.ar    1  UNL1       -0.0003
     17 C          63.5025   90.5227   12.5415 C.ar    1  UNL1       -0.0046
     18 C          63.6044   89.0881   12.9677 C.ar    1  UNL1       -0.0261
     19 C          61.9521   87.5202   11.0340 C.3     1  UNL1        0.0203
     20 C          59.3667   89.2388    6.7822 C.2     1  UNL1        0.0036
     21 C          58.7285   87.8976    6.5730 C.2     1  UNL1       -0.0265
     22 C          58.9900   86.7831    7.5423 C.3     1  UNL1        0.0431
     23 C          59.8898   87.0099    8.7208 C.3     1  UNL1        0.0770
     24 N          60.5280   88.3511    8.9301 N.3     1  UNL1       -0.2699
     25 C          60.2664   89.4656    7.9607 C.3     1  UNL1        0.0999
     26 O          57.6967   90.7821    5.5254 O.co2   1  UNL1       -0.5449
     27 C          59.1051   90.3533    5.8129 C.2     1  UNL1        0.0699
     28 O          60.2519   91.0389    5.1310 O.co2   1  UNL1       -0.5449
@<TRIPOS>UNITY_ATOM_ATTR
26 1
charge -1
@<TRIPOS>BOND
     1    26    27   ar
     2    27    28   ar
     3    27    20    1
     4    20    21    2
     5    21    22    1
     6    22    23    1
     7    23    24    1
     8    24     1    1
     9     1     2    1
    10     2     3    1
    11     4     3    1
    12     4     5    1
    13     5     6    1
    14     6     7   ar
    15     7     8   ar
    16     8     9   ar
    17     9    10   ar
    18    10    11   ar
    19    11    12    1
    20    12    13    1
    21    13    14   ar
    22    14    15   ar
    23    15    16   ar
    24    16    17   ar
    25    17    18   ar
    26     4    19    1
    27    24    25    1
    28    25    20    1
    29    19     1    1
    30    18     4    1
    31    11     6   ar
    32    18    13   ar
