@<TRIPOS>MOLECULE
*****
 44 47 0 0 0
SMALL
GASTEIGER

@<TRIPOS>ATOM
      1 N          64.3282   91.0553   12.7724 N.pl3   1  UNL1       -0.3043
      2 C          64.3046   89.5587   12.8699 C.3     1  UNL1        0.1123
      3 C          63.3909   88.7638   11.9849 C.3     1  UNL1        0.1149
      4 N          62.5007   89.4655   11.0024 N.am    1  UNL1       -0.2747
      5 C          61.5870   88.6706   10.1174 C.2     1  UNL1        0.2442
      6 O          60.6969   89.3724    9.1350 O.2     1  UNL1       -0.2731
      7 C          62.5244   90.9622   10.9049 C.3     1  UNL1        0.1149
      8 C          63.4381   91.7571   11.7899 C.3     1  UNL1        0.1123
      9 C          66.0726   92.9564   13.0775 C.ar    1  UNL1        0.0076
     10 C          66.9864   93.7512   13.9625 C.ar    1  UNL1        0.0279
     11 C          67.0694   93.4399   15.4275 C.ar    1  UNL1        0.1400
     12 F          67.9832   94.2348   16.3125 F       1  UNL1       -0.2042
     13 C          66.2387   92.3338   16.0075 C.ar    1  UNL1        0.0309
     14 C          65.3250   91.5389   15.1224 C.ar    1  UNL1        0.0165
     15 C          65.2420   91.8502   13.6574 C.ar    1  UNL1        0.0453
     16 C          65.9896   93.2677   11.6125 C.3     1  UNL1        0.0784
     17 N          65.3590   94.5486   11.1525 N.3     1  UNL1       -0.2874
     18 H          64.7977   94.8962   11.9300 H       1  UNL1        0.1239
     19 C          66.2217   95.6882   10.6976 C.3     1  UNL1        0.1549
     20 C          66.3771   95.9731    9.2331 C.2     1  UNL1        0.2355
     21 N          65.2401   96.5740    8.4611 N.am    1  UNL1       -0.3277
     22 O          67.6696   95.6571    8.5406 O.2     1  UNL1       -0.2738
     23 H          64.3917   96.7814    8.9156 H       1  UNL1        0.1450
     24 H          65.3421   96.7610    7.4999 H       1  UNL1        0.1450
     25 C          66.5372   92.2981   10.6075 C.3     1  UNL1        0.0203
     26 C          68.7379   92.4098    9.2312 C.3     1  UNL1        0.0001
     27 C          68.0177   92.0802   10.5050 C.3     1  UNL1        0.0017
     28 C          68.7780   91.5326   11.6764 C.3     1  UNL1        0.0001
     29 C          61.5634   87.1740   10.2149 C.3     1  UNL1        0.1564
     30 N          61.6723   86.3397    8.9731 N.am    1  UNL1       -0.2727
     31 C          62.9090   85.6480    8.4812 C.3     1  UNL1        0.0943
     32 C          62.5646   84.9314    7.2093 C.3     1  UNL1        0.0311
     33 C          61.1149   85.1802    6.9151 C.3     1  UNL1        0.0870
     34 C          60.5634   86.0506    8.0052 C.2     1  UNL1        0.2260
     35 O          59.1511   86.5450    8.1091 O.2     1  UNL1       -0.2749
     36 C          61.4309   86.5116   11.5542 C.3     1  UNL1        0.0564
     37 C          62.2596   85.3042   11.8790 C.ar    1  UNL1       -0.0094
     38 C          62.0672   84.0327   11.1068 C.ar    1  UNL1       -0.0025
     39 C          62.8959   82.8253   11.4316 C.ar    1  UNL1        0.0111
     40 C          63.9169   82.8894   12.5287 C.ar    1  UNL1        0.0585
     41 CL         64.7456   81.6820   12.8535 Cl      1  UNL1       -0.0822
     42 C          64.1092   84.1609   13.3008 C.ar    1  UNL1        0.0225
     43 C          63.2806   85.3683   12.9760 C.ar    1  UNL1        0.0546
     44 CL         63.5171   85.9391   13.4797 Cl      1  UNL1       -0.0825
@<TRIPOS>BOND
     1    26    27    1
     2    27    28    1
     3    27    25    1
     4    16    25    1
     5    16    17    1
     6    17    19    1
     7    19    20    1
     8    20    21   am
     9    20    22    2
    10    16     9    1
    11     9    10   ar
    12    10    11   ar
    13    11    12    1
    14    11    13   ar
    15    13    14   ar
    16    14    15   ar
    17    15     1    1
    18     1     2    1
    19     2     3    1
    20     3     4    1
    21     4     5   am
    22     5     6    2
    23     5    29    1
    24    29    36    1
    25    36    37    1
    26    37    38   ar
    27    38    39   ar
    28    39    40   ar
    29    40    41    1
    30    40    42   ar
    31    42    43   ar
    32    43    44    1
    33    29    30    1
    34    30    31    1
    35    31    32    1
    36    32    33    1
    37    33    34    1
    38    34    35    2
    39     4     7    1
    40     7     8    1
    41    15     9   ar
    42     8     1    1
    43    43    37   ar
    44    34    30   am
    45    17    18    1
    46    21    23    1
    47    21    24    1
@<TRIPOS>MOLECULE
*****
 44 47 0 0 0
SMALL
GASTEIGER

@<TRIPOS>ATOM
      1 N          61.5967   86.2284    9.5009 N.pl3   1  UNL1       -0.3043
      2 C          61.2509   85.9004   10.9232 C.3     1  UNL1        0.1123
      3 C          62.0939   84.9293   11.6953 C.3     1  UNL1        0.1149
      4 N          63.2830   84.2862   11.0451 N.am    1  UNL1       -0.2747
      5 C          64.1260   83.3151   11.8172 C.2     1  UNL1        0.2442
      6 O          65.3150   82.6720   11.1670 O.2     1  UNL1       -0.2731
      7 C          63.6288   84.6141    9.6229 C.3     1  UNL1        0.1149
      8 C          62.7857   85.5853    8.8508 C.3     1  UNL1        0.1123
      9 C          60.7088   88.6426    9.1357 C.ar    1  UNL1        0.0076
     10 C          59.8657   89.6137    8.3636 C.ar    1  UNL1        0.0279
     11 C          59.0673   89.1417    7.1847 C.ar    1  UNL1        0.1400
     12 F          58.2242   90.1128    6.4126 F       1  UNL1       -0.2042
     13 C          59.1121   87.6986    6.7779 C.ar    1  UNL1        0.0309
     14 C          59.9552   86.7276    7.5500 C.ar    1  UNL1        0.0165
     15 C          60.7536   87.1996    8.7289 C.ar    1  UNL1        0.0453
     16 C          61.5072   89.1146   10.3146 C.3     1  UNL1        0.0784
     17 N          62.8781   89.6882   10.1109 N.3     1  UNL1       -0.2874
     18 H          63.0970   89.5830    9.1202 H       1  UNL1        0.1239
     19 C          63.1525   91.1196   10.4653 C.3     1  UNL1        0.1549
     20 C          63.9533   91.4487   11.6903 C.2     1  UNL1        0.2355
     21 N          63.4151   91.1150   13.0501 N.am    1  UNL1       -0.3277
     22 O          65.2921   92.1114   11.5555 O.2     1  UNL1       -0.2738
     23 H          62.5363   90.6801   13.1386 H       1  UNL1        0.1450
     24 H          63.9406   91.3310   13.8541 H       1  UNL1        0.1450
     25 C          60.9347   89.0130   11.6973 C.3     1  UNL1        0.0203
     26 C          59.2745   91.0026   11.5089 C.3     1  UNL1        0.0001
     27 C          59.5992   89.6239   12.0028 C.3     1  UNL1        0.0017
     28 C          58.5885   88.8563   12.8023 C.3     1  UNL1        0.0001
     29 C          63.7802   82.9871   13.2394 C.3     1  UNL1        0.1564
     30 N          62.6456   82.0529   13.5391 N.am    1  UNL1       -0.2727
     31 C          61.5919   82.2533   14.5877 C.3     1  UNL1        0.0943
     32 C          60.6605   81.0785   14.5395 C.3     1  UNL1        0.0311
     33 C          61.1386   80.1520   13.4609 C.3     1  UNL1        0.0870
     34 C          62.3654   80.7542   12.8427 C.2     1  UNL1        0.2260
     35 O          63.1706   80.1618   11.7244 O.2     1  UNL1       -0.2749
     36 C          64.5689   83.5933   14.3621 C.3     1  UNL1        0.0564
     37 C          64.2073   84.9521   14.8845 C.ar    1  UNL1       -0.0094
     38 C          64.7351   86.1814   14.2059 C.ar    1  UNL1       -0.0025
     39 C          64.3735   87.5402   14.7283 C.ar    1  UNL1        0.0111
     40 C          63.4841   87.6697   15.9293 C.ar    1  UNL1        0.0585
     41 CL         63.1225   89.0285   16.4517 Cl      1  UNL1       -0.0822
     42 C          62.9564   86.4405   16.6078 C.ar    1  UNL1        0.0225
     43 C          63.3180   85.0817   16.0854 C.ar    1  UNL1        0.0546
     44 CL         62.9530   84.5583   16.5632 Cl      1  UNL1       -0.0825
@<TRIPOS>BOND
     1    26    27    1
     2    27    28    1
     3    27    25    1
     4    16    25    1
     5    16    17    1
     6    17    19    1
     7    19    20    1
     8    20    21   am
     9    20    22    2
    10    16     9    1
    11     9    10   ar
    12    10    11   ar
    13    11    12    1
    14    11    13   ar
    15    13    14   ar
    16    14    15   ar
    17    15     1    1
    18     1     2    1
    19     2     3    1
    20     3     4    1
    21     4     5   am
    22     5     6    2
    23     5    29    1
    24    29    36    1
    25    36    37    1
    26    37    38   ar
    27    38    39   ar
    28    39    40   ar
    29    40    41    1
    30    40    42   ar
    31    42    43   ar
    32    43    44    1
    33    29    30    1
    34    30    31    1
    35    31    32    1
    36    32    33    1
    37    33    34    1
    38    34    35    2
    39     4     7    1
    40     7     8    1
    41    15     9   ar
    42     8     1    1
    43    43    37   ar
    44    34    30   am
    45    17    18    1
    46    21    23    1
    47    21    24    1
@<TRIPOS>MOLECULE
*****
 44 47 0 0 0
SMALL
GASTEIGER

@<TRIPOS>ATOM
      1 N          64.1890   90.8675   12.8121 N.pl3   1  UNL1       -0.3043
      2 C          64.2051   89.3685   12.8650 C.3     1  UNL1        0.1123
      3 C          63.3021   88.5766   11.9665 C.3     1  UNL1        0.1149
      4 N          62.3830   89.2837   11.0150 N.am    1  UNL1       -0.2747
      5 C          61.4800   88.4917   10.1164 C.2     1  UNL1        0.2442
      6 O          60.5609   89.1988    9.1650 O.2     1  UNL1       -0.2731
      7 C          62.3668   90.7826   10.9621 C.3     1  UNL1        0.1149
      8 C          63.2699   91.5746   11.8607 C.3     1  UNL1        0.1123
      9 C          66.0867   92.6148   13.1212 C.ar    1  UNL1        0.0076
     10 C          66.9897   93.4067   14.0198 C.ar    1  UNL1        0.0279
     11 C          66.8979   93.2432   15.5080 C.ar    1  UNL1        0.1400
     12 F          67.8009   94.0351   16.4066 F       1  UNL1       -0.2042
     13 C          65.9032   92.2878   16.0976 C.ar    1  UNL1        0.0309
     14 C          65.0002   91.4960   15.1990 C.ar    1  UNL1        0.0165
     15 C          65.0920   91.6595   13.7108 C.ar    1  UNL1        0.0453
     16 C          66.1785   92.7783   11.6329 C.3     1  UNL1        0.0784
     17 N          67.1520   91.9517   10.8462 N.3     1  UNL1       -0.2874
     18 H          66.6335   91.5505   10.0648 H       1  UNL1        0.1239
     19 C          68.3815   92.5881   10.2688 C.3     1  UNL1        0.1549
     20 C          68.4498   92.8927    8.8016 C.2     1  UNL1        0.2355
     21 N          67.8420   94.1563    8.2689 N.am    1  UNL1       -0.3277
     22 O          69.1259   91.9337    7.8672 O.2     1  UNL1       -0.2738
     23 H          67.3983   94.7858    8.8822 H       1  UNL1        0.1450
     24 H          67.8869   94.3563    7.3059 H       1  UNL1        0.1450
     25 C          65.2968   93.7684   10.9314 C.3     1  UNL1        0.0203
     26 C          66.5064   95.8095   11.9903 C.3     1  UNL1        0.0001
     27 C          65.6848   95.2166   10.8841 C.3     1  UNL1        0.0017
     28 C          65.2511   96.0720    9.7308 C.3     1  UNL1        0.0001
     29 C          61.4962   86.9927   10.1693 C.3     1  UNL1        0.1564
     30 N          61.6570   86.1994    8.9065 N.am    1  UNL1       -0.2727
     31 C          62.9177   85.5363    8.4364 C.3     1  UNL1        0.0943
     32 C          62.6253   84.8569    7.1314 C.3     1  UNL1        0.0311
     33 C          61.1839   85.1002    6.7950 C.3     1  UNL1        0.0870
     34 C          60.5855   85.9299    7.8921 C.2     1  UNL1        0.2260
     35 O          59.1649   86.4064    7.9623 O.2     1  UNL1       -0.2749
     36 C          61.3514   86.2871   11.4850 C.3     1  UNL1        0.0564
     37 C          62.2320   85.1169   11.8093 C.ar    1  UNL1       -0.0094
     38 C          62.1036   83.8425   11.0286 C.ar    1  UNL1       -0.0025
     39 C          62.9842   82.6723   11.3530 C.ar    1  UNL1        0.0111
     40 C          63.9933   82.7766   12.4580 C.ar    1  UNL1        0.0585
     41 CL         64.8739   81.6064   12.7823 Cl      1  UNL1       -0.0822
     42 C          64.1217   84.0510   13.2386 C.ar    1  UNL1        0.0225
     43 C          63.2411   85.2211   12.9142 C.ar    1  UNL1        0.0546
     44 CL         63.4476   85.7991   13.4229 Cl      1  UNL1       -0.0825
@<TRIPOS>BOND
     1    26    27    1
     2    27    28    1
     3    27    25    1
     4    16    25    1
     5    16    17    1
     6    17    19    1
     7    19    20    1
     8    20    21   am
     9    20    22    2
    10    16     9    1
    11     9    10   ar
    12    10    11   ar
    13    11    12    1
    14    11    13   ar
    15    13    14   ar
    16    14    15   ar
    17    15     1    1
    18     1     2    1
    19     2     3    1
    20     3     4    1
    21     4     5   am
    22     5     6    2
    23     5    29    1
    24    29    36    1
    25    36    37    1
    26    37    38   ar
    27    38    39   ar
    28    39    40   ar
    29    40    41    1
    30    40    42   ar
    31    42    43   ar
    32    43    44    1
    33    29    30    1
    34    30    31    1
    35    31    32    1
    36    32    33    1
    37    33    34    1
    38    34    35    2
    39     4     7    1
    40     7     8    1
    41    15     9   ar
    42     8     1    1
    43    43    37   ar
    44    34    30   am
    45    17    18    1
    46    21    23    1
    47    21    24    1
@<TRIPOS>MOLECULE
*****
 44 47 0 0 0
SMALL
GASTEIGER

@<TRIPOS>ATOM
      1 N          61.8729   89.4484   10.1962 N.pl3   1  UNL1       -0.3043
      2 C          62.0770   89.1725   11.6565 C.3     1  UNL1        0.1123
      3 C          63.0442   90.0016   12.4483 C.3     1  UNL1        0.1149
      4 N          63.8073   91.1067   11.7800 N.am    1  UNL1       -0.2747
      5 C          64.7744   91.9358   12.5719 C.2     1  UNL1        0.2442
      6 O          65.5375   93.0408   11.9036 O.2     1  UNL1       -0.2731
      7 C          63.6032   91.3826   10.3198 C.3     1  UNL1        0.1149
      8 C          62.6359   90.5534    9.5279 C.3     1  UNL1        0.1123
      9 C          60.9948   87.1224    9.4421 C.ar    1  UNL1        0.0076
     10 C          60.0276   86.2933    8.6502 C.ar    1  UNL1        0.0279
     11 C          58.9712   86.9611    7.8206 C.ar    1  UNL1        0.1400
     12 F          58.0040   86.1319    7.0287 F       1  UNL1       -0.2042
     13 C          58.8821   88.4579    7.7829 C.ar    1  UNL1        0.0309
     14 C          59.8493   89.2870    8.5748 C.ar    1  UNL1        0.0165
     15 C          60.9056   88.6193    9.4043 C.ar    1  UNL1        0.0453
     16 C          62.0512   86.4547   10.2716 C.3     1  UNL1        0.0784
     17 N          61.8267   86.2373   11.7387 N.3     1  UNL1       -0.2874
     18 H          60.9450   85.7326   11.8300 H       1  UNL1        0.1239
     19 C          62.8412   85.4870   12.5496 C.3     1  UNL1        0.1549
     20 C          62.4235   84.2913   13.3533 C.2     1  UNL1        0.2355
     21 N          62.7482   82.9100   12.8669 N.am    1  UNL1       -0.3277
     22 O          61.6809   84.4769   14.6433 O.2     1  UNL1       -0.2738
     23 H          63.2356   82.7882   12.0202 H       1  UNL1        0.1450
     24 H          62.4740   82.1253   13.3943 H       1  UNL1        0.1450
     25 C          63.3320   86.0042    9.6341 C.3     1  UNL1        0.0203
     26 C          62.9135   84.6304    7.4690 C.3     1  UNL1        0.0001
     27 C          63.3829   84.7017    8.8920 C.3     1  UNL1        0.0017
     28 C          63.9032   83.4705    9.5727 C.3     1  UNL1        0.0001
     29 C          64.9786   91.6599   14.0321 C.3     1  UNL1        0.1564
     30 N          66.3060   91.9431   14.6705 N.am    1  UNL1       -0.2727
     31 C          67.6497   91.7598   14.0294 C.3     1  UNL1        0.0943
     32 C          68.6971   92.1627   15.0248 C.3     1  UNL1        0.0311
     33 C          68.0006   92.5950   16.2811 C.3     1  UNL1        0.0870
     34 C          66.5229   92.4592   16.0621 C.2     1  UNL1        0.2260
     35 O          65.4504   92.7828   17.0596 O.2     1  UNL1       -0.2749
     36 C          63.8552   91.1008   14.8540 C.3     1  UNL1        0.0564
     37 C          63.8718   89.6580   15.2640 C.ar    1  UNL1       -0.0094
     38 C          64.6024   88.6491   14.4282 C.ar    1  UNL1       -0.0025
     39 C          64.6189   87.2063   14.8382 C.ar    1  UNL1        0.0111
     40 C          63.9050   86.7725   16.0840 C.ar    1  UNL1        0.0585
     41 CL         63.9215   85.3297   16.4941 Cl      1  UNL1       -0.0822
     42 C          63.1744   87.7813   16.9198 C.ar    1  UNL1        0.0225
     43 C          63.1579   89.2241   16.5098 C.ar    1  UNL1        0.0546
     44 CL         62.7294   89.6050   17.0637 Cl      1  UNL1       -0.0825
@<TRIPOS>BOND
     1    26    27    1
     2    27    28    1
     3    27    25    1
     4    16    25    1
     5    16    17    1
     6    17    19    1
     7    19    20    1
     8    20    21   am
     9    20    22    2
    10    16     9    1
    11     9    10   ar
    12    10    11   ar
    13    11    12    1
    14    11    13   ar
    15    13    14   ar
    16    14    15   ar
    17    15     1    1
    18     1     2    1
    19     2     3    1
    20     3     4    1
    21     4     5   am
    22     5     6    2
    23     5    29    1
    24    29    36    1
    25    36    37    1
    26    37    38   ar
    27    38    39   ar
    28    39    40   ar
    29    40    41    1
    30    40    42   ar
    31    42    43   ar
    32    43    44    1
    33    29    30    1
    34    30    31    1
    35    31    32    1
    36    32    33    1
    37    33    34    1
    38    34    35    2
    39     4     7    1
    40     7     8    1
    41    15     9   ar
    42     8     1    1
    43    43    37   ar
    44    34    30   am
    45    17    18    1
    46    21    23    1
    47    21    24    1
@<TRIPOS>MOLECULE
*****
 44 47 0 0 0
SMALL
GASTEIGER

@<TRIPOS>ATOM
      1 N          63.4260   85.5719   14.0378 N.pl3   1  UNL1       -0.3043
      2 C          64.0112   86.6603   13.1875 C.3     1  UNL1        0.1123
      3 C          64.1732   88.0430   13.7459 C.3     1  UNL1        0.1149
      4 N          63.7501   88.3374   15.1546 N.am    1  UNL1       -0.2747
      5 C          63.9122   89.7201   15.7129 C.2     1  UNL1        0.2442
      6 O          63.4891   90.0144   17.1216 O.2     1  UNL1       -0.2731
      7 C          63.1650   87.2490   16.0049 C.3     1  UNL1        0.1149
      8 C          63.0029   85.8662   15.4464 C.3     1  UNL1        0.1123
      9 C          62.7044   83.9978   12.1009 C.ar    1  UNL1        0.0076
     10 C          62.5423   82.6151   11.5425 C.ar    1  UNL1        0.0279
     11 C          62.9399   81.4237   12.3626 C.ar    1  UNL1        0.1400
     12 F          62.7778   80.0410   11.8042 F       1  UNL1       -0.2042
     13 C          63.4995   81.6151   13.7411 C.ar    1  UNL1        0.0309
     14 C          63.6615   82.9978   14.2995 C.ar    1  UNL1        0.0165
     15 C          63.2639   84.1892   13.4794 C.ar    1  UNL1        0.0453
     16 C          62.3068   85.1892   11.2808 C.3     1  UNL1        0.0784
     17 N          61.2225   86.1053   11.7655 N.3     1  UNL1       -0.2874
     18 H          61.1614   85.9805   12.7760 H       1  UNL1        0.1239
     19 C          61.3209   87.5813   11.5168 C.3     1  UNL1        0.1549
     20 C          60.0787   88.3840   11.2662 C.2     1  UNL1        0.2355
     21 N          59.0509   88.5329   12.3485 N.am    1  UNL1       -0.3277
     22 O          59.8645   89.0379    9.9333 O.2     1  UNL1       -0.2738
     23 H          59.1915   88.1037   13.2233 H       1  UNL1        0.1450
     24 H          58.2356   89.0597   12.1840 H       1  UNL1        0.1450
     25 C          62.9935   85.4644    9.9760 C.3     1  UNL1        0.0203
     26 C          60.8105   85.9160    8.6416 C.3     1  UNL1        0.0001
     27 C          62.2189   85.4022    8.6930 C.3     1  UNL1        0.0017
     28 C          62.8526   84.8263    7.4614 C.3     1  UNL1        0.0001
     29 C          64.4974   90.8085   14.8627 C.3     1  UNL1        0.1564
     30 N          65.7911   91.4559   15.2587 N.am    1  UNL1       -0.2727
     31 C          67.1341   91.1899   14.6459 C.3     1  UNL1        0.0943
     32 C          68.1421   92.0526   15.3456 C.3     1  UNL1        0.0311
     33 C          67.4220   92.8520   16.3909 C.3     1  UNL1        0.0870
     34 C          65.9691   92.4832   16.3372 C.2     1  UNL1        0.2260
     35 O          64.8845   93.0433   17.2089 O.2     1  UNL1       -0.2749
     36 C          63.7888   91.2494   13.6163 C.3     1  UNL1        0.0564
     37 C          64.5391   91.9895   12.5489 C.ar    1  UNL1       -0.0094
     38 C          65.5644   93.0167   12.9280 C.ar    1  UNL1       -0.0025
     39 C          66.3147   93.7568   11.8606 C.ar    1  UNL1        0.0111
     40 C          66.0397   93.4697   10.4142 C.ar    1  UNL1        0.0585
     41 CL         66.7900   94.2098    9.3468 Cl      1  UNL1       -0.0822
     42 C          65.0143   92.4426   10.0352 C.ar    1  UNL1        0.0225
     43 C          64.2640   91.7025   11.1026 C.ar    1  UNL1        0.0546
     44 CL         63.7706   91.2065   10.7206 Cl      1  UNL1       -0.0825
@<TRIPOS>BOND
     1    26    27    1
     2    27    28    1
     3    27    25    1
     4    16    25    1
     5    16    17    1
     6    17    19    1
     7    19    20    1
     8    20    21   am
     9    20    22    2
    10    16     9    1
    11     9    10   ar
    12    10    11   ar
    13    11    12    1
    14    11    13   ar
    15    13    14   ar
    16    14    15   ar
    17    15     1    1
    18     1     2    1
    19     2     3    1
    20     3     4    1
    21     4     5   am
    22     5     6    2
    23     5    29    1
    24    29    36    1
    25    36    37    1
    26    37    38   ar
    27    38    39   ar
    28    39    40   ar
    29    40    41    1
    30    40    42   ar
    31    42    43   ar
    32    43    44    1
    33    29    30    1
    34    30    31    1
    35    31    32    1
    36    32    33    1
    37    33    34    1
    38    34    35    2
    39     4     7    1
    40     7     8    1
    41    15     9   ar
    42     8     1    1
    43    43    37   ar
    44    34    30   am
    45    17    18    1
    46    21    23    1
    47    21    24    1
@<TRIPOS>MOLECULE
*****
 44 47 0 0 0
SMALL
GASTEIGER

@<TRIPOS>ATOM
      1 N          63.4566   91.1338   11.0591 N.pl3   1  UNL1       -0.3043
      2 C          64.0023   89.7472   10.8872 C.3     1  UNL1        0.1123
      3 C          63.0656   88.5811   10.7747 C.3     1  UNL1        0.1149
      4 N          61.5830   88.8015   10.8342 N.am    1  UNL1       -0.2747
      5 C          60.6463   87.6354   10.7218 C.2     1  UNL1        0.2442
      6 O          59.1638   87.8559   10.7812 O.2     1  UNL1       -0.2731
      7 C          61.0373   90.1881   11.0061 C.3     1  UNL1        0.1149
      8 C          61.9741   91.3542   11.1185 C.3     1  UNL1        0.1123
      9 C          65.1324   92.5474   12.4531 C.ar    1  UNL1        0.0076
     10 C          66.0691   93.7135   12.5655 C.ar    1  UNL1        0.0279
     11 C          66.2669   94.6321   11.3963 C.ar    1  UNL1        0.1400
     12 F          67.2037   95.7983   11.5087 F       1  UNL1       -0.2042
     13 C          65.5278   94.3846   10.1147 C.ar    1  UNL1        0.0309
     14 C          64.5911   93.2185   10.0023 C.ar    1  UNL1        0.0165
     15 C          64.3934   92.2999   11.1715 C.ar    1  UNL1        0.0453
     16 C          64.9347   91.6288   13.6223 C.3     1  UNL1        0.0784
     17 N          63.5483   91.2903   14.0841 N.3     1  UNL1       -0.2874
     18 H          62.9319   91.4143   13.2809 H       1  UNL1        0.1239
     19 C          63.2565   89.9313   14.6480 C.3     1  UNL1        0.1549
     20 C          63.1935   89.7335   16.1336 C.2     1  UNL1        0.2355
     21 N          62.9347   88.3680   16.6981 N.am    1  UNL1       -0.3277
     22 O          63.3892   90.9011   17.0547 O.2     1  UNL1       -0.2738
     23 H          62.8063   87.6017   16.0936 H       1  UNL1        0.1450
     24 H          62.8934   88.2382   17.6731 H       1  UNL1        0.1450
     25 C          66.1233   91.0487   14.3298 C.3     1  UNL1        0.0203
     26 C          66.3678   92.6505   16.3607 C.3     1  UNL1        0.0001
     27 C          66.9779   91.9218   15.2001 C.3     1  UNL1        0.0017
     28 C          68.4424   92.0663   14.9098 C.3     1  UNL1        0.0001
     29 C          61.1921   86.2488   10.5499 C.3     1  UNL1        0.1564
     30 N          61.6364   85.7802    9.1960 N.am    1  UNL1       -0.2727
     31 C          62.9851   85.2184    8.8562 C.3     1  UNL1        0.0943
     32 C          62.9923   84.8821    7.3945 C.3     1  UNL1        0.0311
     33 C          61.6480   85.2360    6.8308 C.3     1  UNL1        0.0870
     34 C          60.8100   85.7910    7.9443 C.2     1  UNL1        0.2260
     35 O          59.3943   86.2724    7.8265 O.2     1  UNL1       -0.2749
     36 C          61.2935   85.3309   11.7318 C.3     1  UNL1        0.0564
     37 C          62.5840   85.2226   12.4887 C.ar    1  UNL1       -0.0094
     38 C          63.0687   86.3776   13.3140 C.ar    1  UNL1       -0.0025
     39 C          64.3592   86.2693   14.0710 C.ar    1  UNL1        0.0111
     40 C          65.1650   85.0059   14.0026 C.ar    1  UNL1        0.0585
     41 CL         66.4555   84.8976   14.7595 Cl      1  UNL1       -0.0822
     42 C          64.6803   83.8510   13.1773 C.ar    1  UNL1        0.0225
     43 C          63.3899   83.9593   12.4204 C.ar    1  UNL1        0.0546
     44 CL         63.2956   83.2619   12.0459 Cl      1  UNL1       -0.0825
@<TRIPOS>BOND
     1    26    27    1
     2    27    28    1
     3    27    25    1
     4    16    25    1
     5    16    17    1
     6    17    19    1
     7    19    20    1
     8    20    21   am
     9    20    22    2
    10    16     9    1
    11     9    10   ar
    12    10    11   ar
    13    11    12    1
    14    11    13   ar
    15    13    14   ar
    16    14    15   ar
    17    15     1    1
    18     1     2    1
    19     2     3    1
    20     3     4    1
    21     4     5   am
    22     5     6    2
    23     5    29    1
    24    29    36    1
    25    36    37    1
    26    37    38   ar
    27    38    39   ar
    28    39    40   ar
    29    40    41    1
    30    40    42   ar
    31    42    43   ar
    32    43    44    1
    33    29    30    1
    34    30    31    1
    35    31    32    1
    36    32    33    1
    37    33    34    1
    38    34    35    2
    39     4     7    1
    40     7     8    1
    41    15     9   ar
    42     8     1    1
    43    43    37   ar
    44    34    30   am
    45    17    18    1
    46    21    23    1
    47    21    24    1
@<TRIPOS>MOLECULE
*****
 44 47 0 0 0
SMALL
GASTEIGER

@<TRIPOS>ATOM
      1 N          64.0009   91.4600   11.3404 N.pl3   1  UNL1       -0.3043
      2 C          64.0103   90.6481   10.0791 C.3     1  UNL1        0.1123
      3 C          63.2158   89.3783    9.9987 C.3     1  UNL1        0.1149
      4 N          62.4120   88.9204   11.1795 N.am    1  UNL1       -0.2747
      5 C          61.6176   87.6506   11.0990 C.2     1  UNL1        0.2442
      6 O          60.8138   87.1927   12.2798 O.2     1  UNL1       -0.2731
      7 C          62.4027   89.7323   12.4407 C.3     1  UNL1        0.1149
      8 C          63.1972   91.0021   12.5211 C.3     1  UNL1        0.1123
      9 C          65.5690   93.0530   12.6646 C.ar    1  UNL1        0.0076
     10 C          66.3634   94.3228   12.7449 C.ar    1  UNL1        0.0279
     11 C          66.3842   95.2694   11.5815 C.ar    1  UNL1        0.1400
     12 F          67.1787   96.5392   11.6619 F       1  UNL1       -0.2042
     13 C          65.6107   94.9462   10.3377 C.ar    1  UNL1        0.0309
     14 C          64.8162   93.6764   10.2574 C.ar    1  UNL1        0.0165
     15 C          64.7954   92.7298   11.4208 C.ar    1  UNL1        0.0453
     16 C          65.5481   92.1065   13.8280 C.3     1  UNL1        0.0784
     17 N          64.3039   91.9589   14.6526 N.3     1  UNL1       -0.2874
     18 H          63.5641   91.6580   14.0182 H       1  UNL1        0.1239
     19 C          64.2845   91.0156   15.8188 C.3     1  UNL1        0.1549
     20 C          63.6714   89.6544   15.6722 C.2     1  UNL1        0.2355
     21 N          62.2996   89.3872   16.2168 N.am    1  UNL1       -0.3277
     22 O          64.4302   88.5606   14.9810 O.2     1  UNL1       -0.2738
     23 H          61.8016   90.1051   16.6705 H       1  UNL1        0.1450
     24 H          61.8972   88.4938   16.1207 H       1  UNL1        0.1450
     25 C          66.7715   91.3074   14.1668 C.3     1  UNL1        0.0203
     26 C          67.7731   92.4128   16.2940 C.3     1  UNL1        0.0001
     27 C          67.9230   91.9613   14.8714 C.3     1  UNL1        0.0017
     28 C          69.2244   92.1636   14.1535 C.3     1  UNL1        0.0001
     29 C          61.6269   86.8387    9.8378 C.3     1  UNL1        0.1564
     30 N          60.5559   87.0413    8.8074 N.am    1  UNL1       -0.2727
     31 C          60.0238   85.9968    7.8716 C.3     1  UNL1        0.0943
     32 C          58.9678   86.6339    7.0178 C.3     1  UNL1        0.0311
     33 C          58.8474   88.0723    7.4259 C.3     1  UNL1        0.0870
     34 C          59.8288   88.3241    8.5320 C.2     1  UNL1        0.2260
     35 O          60.0452   89.6294    9.2385 O.2     1  UNL1       -0.2749
     36 C          62.7074   85.8242    9.6069 C.3     1  UNL1        0.0564
     37 C          62.9630   84.7552   10.6277 C.ar    1  UNL1       -0.0094
     38 C          62.4049   84.8924   12.0133 C.ar    1  UNL1       -0.0025
     39 C          62.6605   83.8234   13.0340 C.ar    1  UNL1        0.0111
     40 C          63.4742   82.6172   12.6692 C.ar    1  UNL1        0.0585
     41 CL         63.7298   81.5482   13.6899 Cl      1  UNL1       -0.0822
     42 C          64.0322   82.4800   11.2836 C.ar    1  UNL1        0.0225
     43 C          63.7766   83.5490   10.2629 C.ar    1  UNL1        0.0546
     44 CL         64.1437   83.3093    9.5971 Cl      1  UNL1       -0.0825
@<TRIPOS>BOND
     1    26    27    1
     2    27    28    1
     3    27    25    1
     4    16    25    1
     5    16    17    1
     6    17    19    1
     7    19    20    1
     8    20    21   am
     9    20    22    2
    10    16     9    1
    11     9    10   ar
    12    10    11   ar
    13    11    12    1
    14    11    13   ar
    15    13    14   ar
    16    14    15   ar
    17    15     1    1
    18     1     2    1
    19     2     3    1
    20     3     4    1
    21     4     5   am
    22     5     6    2
    23     5    29    1
    24    29    36    1
    25    36    37    1
    26    37    38   ar
    27    38    39   ar
    28    39    40   ar
    29    40    41    1
    30    40    42   ar
    31    42    43   ar
    32    43    44    1
    33    29    30    1
    34    30    31    1
    35    31    32    1
    36    32    33    1
    37    33    34    1
    38    34    35    2
    39     4     7    1
    40     7     8    1
    41    15     9   ar
    42     8     1    1
    43    43    37   ar
    44    34    30   am
    45    17    18    1
    46    21    23    1
    47    21    24    1
