@<TRIPOS>MOLECULE
*****
 31 33 0 0 0
SMALL
GASTEIGER

@<TRIPOS>ATOM
      1 C          61.4579   87.8441   11.0687 C.2     1  UNL1        0.1999
      2 O          59.9912   87.8535   11.3829 O.2     1  UNL1       -0.2864
      3 N          63.4768   88.6828   13.4915 N.pl3   1  UNL1       -0.3425
      4 C          63.1795   89.4994   12.2690 C.ar    1  UNL1        0.1314
      5 C          62.2516   89.1140   11.1553 C.ar    1  UNL1        0.0909
      6 C          62.2567   90.2213   10.1435 C.ar    1  UNL1        0.1265
      7 N          63.1878   91.2911   10.6317 N.ar    1  UNL1       -0.1622
      8 N          63.7582   90.8450   11.9454 N.ar    1  UNL1       -0.2164
      9 H          63.0451   87.8067   13.6152 H       1  UNL1        0.1437
     10 H          64.1036   89.0229   14.1703 H       1  UNL1        0.1437
     11 C          64.7356   91.6101   12.7876 C.ar    1  UNL1        0.0843
     12 C          64.9772   91.2046   14.2114 C.ar    1  UNL1        0.0215
     13 C          65.9545   91.9697   15.0537 C.ar    1  UNL1        0.0312
     14 C          66.6904   93.1403   14.4721 C.ar    1  UNL1        0.1402
     15 F          67.6678   93.9054   15.3143 F       1  UNL1       -0.2042
     16 C          66.4488   93.5458   13.0483 C.ar    1  UNL1        0.0312
     17 C          65.4714   92.7807   12.2061 C.ar    1  UNL1        0.0215
     18 C          62.1309   86.5648   10.6680 C.ar    1  UNL1        0.0421
     19 C          62.4137   86.2874    9.2213 C.ar    1  UNL1        0.0034
     20 C          63.0867   85.0081    8.8206 C.ar    1  UNL1        0.0032
     21 C          63.4769   84.0063    9.8666 C.ar    1  UNL1        0.0369
     22 C          63.1940   84.2838   11.3133 C.ar    1  UNL1        0.1388
     23 C          62.5211   85.5630   11.7140 C.ar    1  UNL1        0.0401
     24 O          63.5842   83.2820   12.3594 O.3     1  UNL1       -0.4728
     25 C          64.5134   83.6785   13.4681 C.3     1  UNL1        0.2369
     26 C          63.9613   84.0534   14.8114 C.3     1  UNL1        0.1835
     27 O          64.7120   85.0090   15.6907 O.3     1  UNL1       -0.3784
     28 H          64.2208   85.1425   16.5165 H       1  UNL1        0.2106
     29 C          62.6584   83.4726   15.2755 C.3     1  UNL1        0.1702
     30 O          62.2989   82.0598   14.9221 O.3     1  UNL1       -0.3794
     31 H          62.1761   81.9878   13.9626 H       1  UNL1        0.2105
@<TRIPOS>BOND
     1     3     4    1
     2     4     5   ar
     3     5     1    1
     4     1     2    2
     5     1    18    1
     6    18    19   ar
     7    19    20   ar
     8    20    21   ar
     9    21    22   ar
    10    22    24    1
    11    24    25    1
    12    25    26    1
    13    26    27    1
    14    26    29    1
    15    29    30    1
    16    22    23   ar
    17     5     6   ar
    18     6     7   ar
    19     7     8   ar
    20     8    11    1
    21    11    12   ar
    22    12    13   ar
    23    13    14   ar
    24    14    15    1
    25    14    16   ar
    26    16    17   ar
    27     8     4   ar
    28    17    11   ar
    29    23    18   ar
    30     3     9    1
    31     3    10    1
    32    27    28    1
    33    30    31    1
@<TRIPOS>MOLECULE
*****
 31 33 0 0 0
SMALL
GASTEIGER

@<TRIPOS>ATOM
      1 C          63.7463   90.0691   13.8736 C.2     1  UNL1        0.1999
      2 O          63.3154   89.2232   15.0350 O.2     1  UNL1       -0.2864
      3 N          63.0729   87.1883   12.4963 N.pl3   1  UNL1       -0.3425
      4 C          62.8176   88.5365   11.8903 C.ar    1  UNL1        0.1314
      5 C          63.1272   89.8606   12.5234 C.ar    1  UNL1        0.0909
      6 C          62.7089   90.9398   11.5691 C.ar    1  UNL1        0.1265
      7 N          62.1408   90.2826   10.3463 N.ar    1  UNL1       -0.1622
      8 N          62.2080   88.7973   10.5448 N.ar    1  UNL1       -0.2164
      9 H          63.4795   87.1194   13.3902 H       1  UNL1        0.1437
     10 H          62.8337   86.3724   12.0001 H       1  UNL1        0.1437
     11 C          61.7466   87.7556    9.5691 C.ar    1  UNL1        0.0843
     12 C          60.3541   87.8119    9.0144 C.ar    1  UNL1        0.0215
     13 C          59.8926   86.7703    8.0386 C.ar    1  UNL1        0.0312
     14 C          60.8238   85.6722    7.6176 C.ar    1  UNL1        0.1402
     15 F          60.3624   84.6306    6.6419 F       1  UNL1       -0.2042
     16 C          62.2163   85.6159    8.1723 C.ar    1  UNL1        0.0312
     17 C          62.6777   86.6575    9.1480 C.ar    1  UNL1        0.0215
     18 C          64.7965   91.1234   14.0626 C.ar    1  UNL1        0.0421
     19 C          65.1403   91.6008   15.4423 C.ar    1  UNL1        0.0034
     20 C          66.1904   92.6551   15.6312 C.ar    1  UNL1        0.0032
     21 C          66.8967   93.2320   14.4403 C.ar    1  UNL1        0.0369
     22 C          66.5529   92.7546   13.0605 C.ar    1  UNL1        0.1388
     23 C          65.5028   91.7003   12.8716 C.ar    1  UNL1        0.0401
     24 O          67.2593   93.3315   11.8696 O.3     1  UNL1       -0.4728
     25 C          66.5084   94.1901   10.8955 C.3     1  UNL1        0.2369
     26 C          66.9423   94.2524    9.4610 C.3     1  UNL1        0.1835
     27 O          66.2519   95.1828    8.5083 O.3     1  UNL1       -0.3784
     28 H          66.6516   95.0997    7.6284 H       1  UNL1        0.2106
     29 C          68.0668   93.3844    8.9792 C.3     1  UNL1        0.1702
     30 O          69.3229   93.2652    9.7905 O.3     1  UNL1       -0.3794
     31 H          69.7768   94.1222    9.8114 H       1  UNL1        0.2105
@<TRIPOS>BOND
     1     3     4    1
     2     4     5   ar
     3     5     1    1
     4     1     2    2
     5     1    18    1
     6    18    19   ar
     7    19    20   ar
     8    20    21   ar
     9    21    22   ar
    10    22    24    1
    11    24    25    1
    12    25    26    1
    13    26    27    1
    14    26    29    1
    15    29    30    1
    16    22    23   ar
    17     5     6   ar
    18     6     7   ar
    19     7     8   ar
    20     8    11    1
    21    11    12   ar
    22    12    13   ar
    23    13    14   ar
    24    14    15    1
    25    14    16   ar
    26    16    17   ar
    27     8     4   ar
    28    17    11   ar
    29    23    18   ar
    30     3     9    1
    31     3    10    1
    32    27    28    1
    33    30    31    1
@<TRIPOS>MOLECULE
*****
 31 33 0 0 0
SMALL
GASTEIGER

@<TRIPOS>ATOM
      1 C          61.0291   89.4342   11.4816 C.2     1  UNL1        0.1999
      2 O          60.0285   89.5565   12.5924 O.2     1  UNL1       -0.2864
      3 N          62.7785   90.1692   14.1365 N.pl3   1  UNL1       -0.3425
      4 C          63.0899   90.5904   12.7309 C.ar    1  UNL1        0.1314
      5 C          62.2858   90.2526   11.5106 C.ar    1  UNL1        0.0909
      6 C          62.9590   90.8769   10.3244 C.ar    1  UNL1        0.1265
      7 N          64.1792   91.6006   10.8116 N.ar    1  UNL1       -0.1622
      8 N          64.2601   91.4235   12.2990 N.ar    1  UNL1       -0.2164
      9 H          61.9828   89.6196   14.3208 H       1  UNL1        0.1437
     10 H          63.3699   90.4423   14.8747 H       1  UNL1        0.1437
     11 C          65.3244   91.9816   13.1967 C.ar    1  UNL1        0.0843
     12 C          65.9245   91.1243   14.2714 C.ar    1  UNL1        0.0215
     13 C          66.9888   91.6823   15.1692 C.ar    1  UNL1        0.0312
     14 C          67.4529   93.0977   14.9922 C.ar    1  UNL1        0.1402
     15 F          68.5172   93.6558   15.8900 F       1  UNL1       -0.2042
     16 C          66.8528   93.9550   13.9176 C.ar    1  UNL1        0.0312
     17 C          65.7885   93.3969   13.0198 C.ar    1  UNL1        0.0215
     18 C          60.7729   88.4934   10.3417 C.ar    1  UNL1        0.0421
     19 C          61.1989   87.0588   10.4430 C.ar    1  UNL1        0.0034
     20 C          60.9427   86.1181    9.3031 C.ar    1  UNL1        0.0032
     21 C          60.2604   86.6120    8.0619 C.ar    1  UNL1        0.0369
     22 C          59.8344   88.0466    7.9606 C.ar    1  UNL1        0.1388
     23 C          60.0906   88.9873    9.1005 C.ar    1  UNL1        0.0401
     24 O          59.1522   88.5405    6.7194 O.3     1  UNL1       -0.4728
     25 C          58.5776   89.9255    6.6799 C.3     1  UNL1        0.2369
     26 C          58.9527   90.8617    5.5696 C.3     1  UNL1        0.1835
     27 O          60.3946   91.0491    5.2014 O.3     1  UNL1       -0.3784
     28 H          60.4619   91.6826    4.4700 H       1  UNL1        0.2106
     29 C          57.8857   91.6106    4.8274 C.3     1  UNL1        0.1702
     30 O          56.4445   91.2339    5.0035 O.3     1  UNL1       -0.3794
     31 H          56.2968   90.3443    4.6461 H       1  UNL1        0.2105
@<TRIPOS>BOND
     1     3     4    1
     2     4     5   ar
     3     5     1    1
     4     1     2    2
     5     1    18    1
     6    18    19   ar
     7    19    20   ar
     8    20    21   ar
     9    21    22   ar
    10    22    24    1
    11    24    25    1
    12    25    26    1
    13    26    27    1
    14    26    29    1
    15    29    30    1
    16    22    23   ar
    17     5     6   ar
    18     6     7   ar
    19     7     8   ar
    20     8    11    1
    21    11    12   ar
    22    12    13   ar
    23    13    14   ar
    24    14    15    1
    25    14    16   ar
    26    16    17   ar
    27     8     4   ar
    28    17    11   ar
    29    23    18   ar
    30     3     9    1
    31     3    10    1
    32    27    28    1
    33    30    31    1
@<TRIPOS>MOLECULE
*****
 31 33 0 0 0
SMALL
GASTEIGER

@<TRIPOS>ATOM
      1 C          64.3625   90.9389   15.1605 C.2     1  UNL1        0.1999
      2 O          63.4322   91.4514   16.2198 O.2     1  UNL1       -0.2864
      3 N          62.6620   90.9641   12.3754 N.pl3   1  UNL1       -0.3425
      4 C          63.2023   89.7480   13.0676 C.ar    1  UNL1        0.1314
      5 C          63.9839   89.7364   14.3478 C.ar    1  UNL1        0.0909
      6 C          64.3205   88.3112   14.6725 C.ar    1  UNL1        0.1265
      7 N          63.7470   87.4419   13.5930 N.ar    1  UNL1       -0.1622
      8 N          63.0558   88.3299   12.6011 N.ar    1  UNL1       -0.2164
      9 H          62.8107   91.8573   12.7618 H       1  UNL1        0.1437
     10 H          62.1587   90.8690   11.5346 H       1  UNL1        0.1437
     11 C          62.3433   87.8790   11.3605 C.ar    1  UNL1        0.0843
     12 C          62.2320   86.4158   11.0494 C.ar    1  UNL1        0.0215
     13 C          61.5195   85.9648    9.8089 C.ar    1  UNL1        0.0312
     14 C          60.9184   86.9771    8.8793 C.ar    1  UNL1        0.1402
     15 F          60.2059   86.5262    7.6387 F       1  UNL1       -0.2042
     16 C          61.0297   88.4403    9.1904 C.ar    1  UNL1        0.0312
     17 C          61.7422   88.8912   10.4310 C.ar    1  UNL1        0.0215
     18 C          65.6713   91.6291   14.9140 C.ar    1  UNL1        0.0421
     19 C          66.3451   92.3782   16.0252 C.ar    1  UNL1        0.0034
     20 C          67.6539   93.0683   15.7787 C.ar    1  UNL1        0.0032
     21 C          68.2889   93.0093   14.4210 C.ar    1  UNL1        0.0369
     22 C          67.6151   92.2601   13.3098 C.ar    1  UNL1        0.1388
     23 C          66.3063   91.5700   13.5563 C.ar    1  UNL1        0.0401
     24 O          68.2501   92.2011   11.9521 O.3     1  UNL1       -0.4728
     25 C          67.3998   92.3094   10.7212 C.3     1  UNL1        0.2369
     26 C          67.9511   92.9522    9.4831 C.3     1  UNL1        0.1835
     27 O          68.6776   92.1219    8.4668 O.3     1  UNL1       -0.3784
     28 H          68.9665   92.6878    7.7338 H       1  UNL1        0.2106
     29 C          67.7760   94.4254    9.2613 C.3     1  UNL1        0.1702
     30 O          66.6110   94.9303    8.4625 O.3     1  UNL1       -0.3794
     31 H          66.6985   94.6368    7.5422 H       1  UNL1        0.2105
@<TRIPOS>BOND
     1     3     4    1
     2     4     5   ar
     3     5     1    1
     4     1     2    2
     5     1    18    1
     6    18    19   ar
     7    19    20   ar
     8    20    21   ar
     9    21    22   ar
    10    22    24    1
    11    24    25    1
    12    25    26    1
    13    26    27    1
    14    26    29    1
    15    29    30    1
    16    22    23   ar
    17     5     6   ar
    18     6     7   ar
    19     7     8   ar
    20     8    11    1
    21    11    12   ar
    22    12    13   ar
    23    13    14   ar
    24    14    15    1
    25    14    16   ar
    26    16    17   ar
    27     8     4   ar
    28    17    11   ar
    29    23    18   ar
    30     3     9    1
    31     3    10    1
    32    27    28    1
    33    30    31    1
@<TRIPOS>MOLECULE
*****
 31 33 0 0 0
SMALL
GASTEIGER

@<TRIPOS>ATOM
      1 C          64.3085   90.3206   14.6110 C.2     1  UNL1        0.1999
      2 O          63.5590   90.7917   15.8218 O.2     1  UNL1       -0.2864
      3 N          63.9957   91.9766   11.8165 N.pl3   1  UNL1       -0.3425
      4 C          65.2072   91.9604   12.7009 C.ar    1  UNL1        0.1314
      5 C          65.3510   91.1992   13.9854 C.ar    1  UNL1        0.0909
      6 C          66.7202   91.4708   14.5344 C.ar    1  UNL1        0.1265
      7 N          67.4227   92.3999   13.5892 N.ar    1  UNL1       -0.1622
      8 N          66.4875   92.7025   12.4560 N.ar    1  UNL1       -0.2164
      9 H          63.1989   91.4539   12.0635 H       1  UNL1        0.1437
     10 H          63.9975   92.5101   10.9891 H       1  UNL1        0.1437
     11 C          66.7812   93.5911   11.2838 C.ar    1  UNL1        0.0843
     12 C          67.4828   93.0367   10.0795 C.ar    1  UNL1        0.0215
     13 C          67.7765   93.9252    8.9073 C.ar    1  UNL1        0.0312
     14 C          67.3686   95.3684    8.9394 C.ar    1  UNL1        0.1402
     15 F          67.6623   96.2571    7.7672 F       1  UNL1       -0.2042
     16 C          66.6670   95.9229   10.1437 C.ar    1  UNL1        0.0312
     17 C          66.3733   95.0342   11.3159 C.ar    1  UNL1        0.0215
     18 C          64.0157   88.9708   14.0257 C.ar    1  UNL1        0.0421
     19 C          64.4297   87.7295   14.7590 C.ar    1  UNL1        0.0034
     20 C          64.1368   86.3799   14.1737 C.ar    1  UNL1        0.0032
     21 C          63.4299   86.2715   12.8552 C.ar    1  UNL1        0.0369
     22 C          63.0159   87.5128   12.1219 C.ar    1  UNL1        0.1388
     23 C          63.3088   88.8625   12.7072 C.ar    1  UNL1        0.0401
     24 O          62.3090   87.4044   10.8034 O.3     1  UNL1       -0.4728
     25 C          60.8099   87.3887   10.7551 C.3     1  UNL1        0.2369
     26 C          60.0327   88.5949   11.1921 C.3     1  UNL1        0.1835
     27 O          59.1280   88.5123   12.3856 O.3     1  UNL1       -0.3784
     28 H          58.7043   89.3728   12.5304 H       1  UNL1        0.2106
     29 C          60.1603   89.8839   10.4355 C.3     1  UNL1        0.1702
     30 O          61.5127   90.4957   10.2190 O.3     1  UNL1       -0.3794
     31 H          61.8834   90.7709   11.0721 H       1  UNL1        0.2105
@<TRIPOS>BOND
     1     3     4    1
     2     4     5   ar
     3     5     1    1
     4     1     2    2
     5     1    18    1
     6    18    19   ar
     7    19    20   ar
     8    20    21   ar
     9    21    22   ar
    10    22    24    1
    11    24    25    1
    12    25    26    1
    13    26    27    1
    14    26    29    1
    15    29    30    1
    16    22    23   ar
    17     5     6   ar
    18     6     7   ar
    19     7     8   ar
    20     8    11    1
    21    11    12   ar
    22    12    13   ar
    23    13    14   ar
    24    14    15    1
    25    14    16   ar
    26    16    17   ar
    27     8     4   ar
    28    17    11   ar
    29    23    18   ar
    30     3     9    1
    31     3    10    1
    32    27    28    1
    33    30    31    1
@<TRIPOS>MOLECULE
*****
 31 33 0 0 0
SMALL
GASTEIGER

@<TRIPOS>ATOM
      1 C          61.1166   90.2012   10.7514 C.2     1  UNL1        0.1999
      2 O          59.8538   90.9428   11.0759 O.2     1  UNL1       -0.2864
      3 N          62.5959   90.1765   13.6601 N.pl3   1  UNL1       -0.3425
      4 C          63.1286   90.8024   12.4053 C.ar    1  UNL1        0.1314
      5 C          62.4486   90.8138   11.0684 C.ar    1  UNL1        0.0909
      6 C          63.3345   91.5453   10.1040 C.ar    1  UNL1        0.1265
      7 N          64.5620   91.9860   10.8449 N.ar    1  UNL1       -0.1622
      8 N          64.4347   91.5269   12.2672 N.ar    1  UNL1       -0.2164
      9 H          61.7234   89.7205   13.6507 H       1  UNL1        0.1437
     10 H          63.1189   90.2216   14.4930 H       1  UNL1        0.1437
     11 C          65.4376   91.7526   13.3597 C.ar    1  UNL1        0.0843
     12 C          64.9783   91.9064   14.7793 C.ar    1  UNL1        0.0215
     13 C          65.9811   92.1321   15.8718 C.ar    1  UNL1        0.0312
     14 C          67.4432   92.2040   15.5446 C.ar    1  UNL1        0.1402
     15 F          68.4461   92.4297   16.6370 F       1  UNL1       -0.2042
     16 C          67.9025   92.0502   14.1249 C.ar    1  UNL1        0.0312
     17 C          66.8997   91.8245   13.0325 C.ar    1  UNL1        0.0215
     18 C          61.0474   88.8470   10.1101 C.ar    1  UNL1        0.0421
     19 C          60.1581   88.6239    8.9229 C.ar    1  UNL1        0.0034
     20 C          60.0889   87.2697    8.2816 C.ar    1  UNL1        0.0032
     21 C          60.9090   86.1386    8.8275 C.ar    1  UNL1        0.0369
     22 C          61.7983   86.3616   10.0146 C.ar    1  UNL1        0.1388
     23 C          61.8675   87.7158   10.6559 C.ar    1  UNL1        0.0401
     24 O          62.6184   85.2305   10.5605 O.3     1  UNL1       -0.4728
     25 C          62.5301   84.8737   12.0147 C.3     1  UNL1        0.2369
     26 C          63.6648   84.1531   12.6804 C.3     1  UNL1        0.1835
     27 O          64.3589   84.7722   13.8573 O.3     1  UNL1       -0.3784
     28 H          65.0631   84.1804   14.1653 H       1  UNL1        0.2106
     29 C          64.1055   82.8135   12.1692 C.3     1  UNL1        0.1702
     30 O          65.1048   82.7280   11.0539 O.3     1  UNL1       -0.3794
     31 H          64.7161   83.0914   10.2429 H       1  UNL1        0.2105
@<TRIPOS>BOND
     1     3     4    1
     2     4     5   ar
     3     5     1    1
     4     1     2    2
     5     1    18    1
     6    18    19   ar
     7    19    20   ar
     8    20    21   ar
     9    21    22   ar
    10    22    24    1
    11    24    25    1
    12    25    26    1
    13    26    27    1
    14    26    29    1
    15    29    30    1
    16    22    23   ar
    17     5     6   ar
    18     6     7   ar
    19     7     8   ar
    20     8    11    1
    21    11    12   ar
    22    12    13   ar
    23    13    14   ar
    24    14    15    1
    25    14    16   ar
    26    16    17   ar
    27     8     4   ar
    28    17    11   ar
    29    23    18   ar
    30     3     9    1
    31     3    10    1
    32    27    28    1
    33    30    31    1
@<TRIPOS>MOLECULE
*****
 31 33 0 0 0
SMALL
GASTEIGER

@<TRIPOS>ATOM
      1 C          62.0709   89.3942   11.9661 C.2     1  UNL1        0.1999
      2 O          60.7660   89.7835   12.5952 O.2     1  UNL1       -0.2864
      3 N          63.1154   91.4877    9.6912 N.pl3   1  UNL1       -0.3425
      4 C          63.7398   91.2638   11.0365 C.ar    1  UNL1        0.1314
      5 C          63.2597   90.3015   12.0822 C.ar    1  UNL1        0.0909
      6 C          64.1771   90.4058   13.2644 C.ar    1  UNL1        0.1265
      7 N          65.2242   91.4326   12.9493 N.ar    1  UNL1       -0.1622
      8 N          64.9539   91.9628   11.5724 N.ar    1  UNL1       -0.2164
      9 H          62.3154   90.9776    9.4287 H       1  UNL1        0.1437
     10 H          63.5058   92.1448    9.0706 H       1  UNL1        0.1437
     11 C          65.7569   93.0085   10.8570 C.ar    1  UNL1        0.0843
     12 C          66.9737   92.6141   10.0735 C.ar    1  UNL1        0.0215
     13 C          67.7767   93.6597    9.3580 C.ar    1  UNL1        0.0312
     14 C          67.3628   95.0999    9.4261 C.ar    1  UNL1        0.1402
     15 F          68.1657   96.1456    8.7107 F       1  UNL1       -0.2042
     16 C          66.1460   95.4944   10.2096 C.ar    1  UNL1        0.0312
     17 C          65.3430   94.4487   10.9250 C.ar    1  UNL1        0.0215
     18 C          62.1869   88.0975   11.2209 C.ar    1  UNL1        0.0421
     19 C          62.0612   88.0776    9.7264 C.ar    1  UNL1        0.0034
     20 C          62.1772   86.7809    8.9813 C.ar    1  UNL1        0.0032
     21 C          62.4190   85.5043    9.7307 C.ar    1  UNL1        0.0369
     22 C          62.5447   85.5242   11.2253 C.ar    1  UNL1        0.1388
     23 C          62.4286   86.8209   11.9704 C.ar    1  UNL1        0.0401
     24 O          62.7864   84.2476   11.9747 O.3     1  UNL1       -0.4728
     25 C          64.0563   84.0627   12.7513 C.3     1  UNL1        0.2369
     26 C          64.0484   83.2686   14.0239 C.3     1  UNL1        0.1835
     27 O          64.6440   83.8475   15.2729 O.3     1  UNL1       -0.3784
     28 H          64.5571   83.2095   15.9983 H       1  UNL1        0.2106
     29 C          63.4450   81.8955   14.0473 C.3     1  UNL1        0.1702
     30 O          62.1977   81.6379   14.8398 O.3     1  UNL1       -0.3794
     31 H          62.3865   81.7484   15.7848 H       1  UNL1        0.2105
@<TRIPOS>BOND
     1     3     4    1
     2     4     5   ar
     3     5     1    1
     4     1     2    2
     5     1    18    1
     6    18    19   ar
     7    19    20   ar
     8    20    21   ar
     9    21    22   ar
    10    22    24    1
    11    24    25    1
    12    25    26    1
    13    26    27    1
    14    26    29    1
    15    29    30    1
    16    22    23   ar
    17     5     6   ar
    18     6     7   ar
    19     7     8   ar
    20     8    11    1
    21    11    12   ar
    22    12    13   ar
    23    13    14   ar
    24    14    15    1
    25    14    16   ar
    26    16    17   ar
    27     8     4   ar
    28    17    11   ar
    29    23    18   ar
    30     3     9    1
    31     3    10    1
    32    27    28    1
    33    30    31    1
@<TRIPOS>MOLECULE
*****
 31 33 0 0 0
SMALL
GASTEIGER

@<TRIPOS>ATOM
      1 C          64.2453   90.3171   14.4513 C.2     1  UNL1        0.1999
      2 O          63.5332   90.7435   15.7008 O.2     1  UNL1       -0.2864
      3 N          63.9736   92.0346   11.6898 N.pl3   1  UNL1       -0.3425
      4 C          65.1773   91.9868   12.5836 C.ar    1  UNL1        0.1314
      5 C          65.3021   91.1974   13.8529 C.ar    1  UNL1        0.0909
      6 C          66.6695   91.4428   14.4187 C.ar    1  UNL1        0.1265
      7 N          67.3897   92.3839   13.4992 N.ar    1  UNL1       -0.1622
      8 N          66.4674   92.7201   12.3649 N.ar    1  UNL1       -0.2164
      9 H          63.1692   91.5154   11.9192 H       1  UNL1        0.1437
     10 H          63.9880   92.5852   10.8738 H       1  UNL1        0.1437
     11 C          66.7804   93.6299   11.2141 C.ar    1  UNL1        0.0843
     12 C          66.3834   95.0753   11.2712 C.ar    1  UNL1        0.0215
     13 C          66.6963   95.9851   10.1205 C.ar    1  UNL1        0.0312
     14 C          67.4063   95.4495    8.9125 C.ar    1  UNL1        0.1402
     15 F          67.7193   96.3593    7.7617 F       1  UNL1       -0.2042
     16 C          67.8033   94.0041    8.8554 C.ar    1  UNL1        0.0312
     17 C          67.4903   93.0943   10.0062 C.ar    1  UNL1        0.0215
     18 C          63.9004   89.0105   13.8002 C.ar    1  UNL1        0.0421
     19 C          64.2944   87.7195   14.4545 C.ar    1  UNL1        0.0034
     20 C          63.9496   86.4129   13.8034 C.ar    1  UNL1        0.0032
     21 C          63.2108   86.3974   12.4981 C.ar    1  UNL1        0.0369
     22 C          62.8168   87.6883   11.8438 C.ar    1  UNL1        0.1388
     23 C          63.1616   88.9949   12.4949 C.ar    1  UNL1        0.0401
     24 O          62.0779   87.6728   10.5385 O.3     1  UNL1       -0.4728
     25 C          61.7032   86.3661    9.9043 C.3     1  UNL1        0.2369
     26 C          60.8113   86.3462    8.6985 C.3     1  UNL1        0.1835
     27 O          61.2656   85.6667    7.4408 O.3     1  UNL1       -0.3784
     28 H          60.5757   85.7454    6.7635 H       1  UNL1        0.2106
     29 C          59.4650   87.0057    8.7504 C.3     1  UNL1        0.1702
     30 O          58.5788   86.9978    7.5402 O.3     1  UNL1       -0.3794
     31 H          58.9895   87.5224    6.8352 H       1  UNL1        0.2105
@<TRIPOS>BOND
     1     3     4    1
     2     4     5   ar
     3     5     1    1
     4     1     2    2
     5     1    18    1
     6    18    19   ar
     7    19    20   ar
     8    20    21   ar
     9    21    22   ar
    10    22    24    1
    11    24    25    1
    12    25    26    1
    13    26    27    1
    14    26    29    1
    15    29    30    1
    16    22    23   ar
    17     5     6   ar
    18     6     7   ar
    19     7     8   ar
    20     8    11    1
    21    11    12   ar
    22    12    13   ar
    23    13    14   ar
    24    14    15    1
    25    14    16   ar
    26    16    17   ar
    27     8     4   ar
    28    17    11   ar
    29    23    18   ar
    30     3     9    1
    31     3    10    1
    32    27    28    1
    33    30    31    1
@<TRIPOS>MOLECULE
*****
 31 33 0 0 0
SMALL
GASTEIGER

@<TRIPOS>ATOM
      1 C          61.7289   89.9004   10.8964 C.2     1  UNL1        0.1999
      2 O          60.4170   90.6218   10.8042 O.2     1  UNL1       -0.2864
      3 N          63.2461   87.6819   12.7473 N.pl3   1  UNL1       -0.3425
      4 C          62.4917   87.4061   11.4805 C.ar    1  UNL1        0.1314
      5 C          61.7943   88.4258   10.6297 C.ar    1  UNL1        0.0909
      6 C          61.1738   87.7119    9.4655 C.ar    1  UNL1        0.1265
      7 N          61.4877   86.2510    9.5967 N.ar    1  UNL1       -0.1622
      8 N          62.3022   86.0620   10.8421 N.ar    1  UNL1       -0.2164
      9 H          63.3153   88.6028   13.0884 H       1  UNL1        0.1437
     10 H          63.6721   86.9421   13.2376 H       1  UNL1        0.1437
     11 C          62.8339   84.7578   11.3584 C.ar    1  UNL1        0.0843
     12 C          62.5817   84.3557   12.7813 C.ar    1  UNL1        0.0215
     13 C          63.1133   83.0516   13.2977 C.ar    1  UNL1        0.0312
     14 C          63.8972   82.1495   12.3910 C.ar    1  UNL1        0.1402
     15 F          64.4289   80.8454   12.9073 F       1  UNL1       -0.2042
     16 C          64.1494   82.5517   10.9681 C.ar    1  UNL1        0.0312
     17 C          63.6177   83.8558   10.4518 C.ar    1  UNL1        0.0215
     18 C          62.9755   90.6537   11.2552 C.ar    1  UNL1        0.0421
     19 C          63.5961   91.5926   10.2635 C.ar    1  UNL1        0.0034
     20 C          64.8425   92.3458   10.6224 C.ar    1  UNL1        0.0032
     21 C          65.4685   92.1602   11.9728 C.ar    1  UNL1        0.0369
     22 C          64.8479   91.2214   12.9645 C.ar    1  UNL1        0.1388
     23 C          63.6014   90.4681   12.6056 C.ar    1  UNL1        0.0401
     24 O          65.4739   91.0358   14.3149 O.3     1  UNL1       -0.4728
     25 C          65.5901   92.1996   15.2541 C.3     1  UNL1        0.2369
     26 C          66.6651   93.2252   15.0479 C.3     1  UNL1        0.1835
     27 O          66.3846   94.4521   14.2319 O.3     1  UNL1       -0.3784
     28 H          67.1797   95.0067   14.1982 H       1  UNL1        0.2106
     29 C          68.0207   93.0238   15.6578 C.3     1  UNL1        0.1702
     30 O          69.2400   92.9999   14.7845 O.3     1  UNL1       -0.3794
     31 H          69.2064   92.2238   14.2036 H       1  UNL1        0.2105
@<TRIPOS>BOND
     1     3     4    1
     2     4     5   ar
     3     5     1    1
     4     1     2    2
     5     1    18    1
     6    18    19   ar
     7    19    20   ar
     8    20    21   ar
     9    21    22   ar
    10    22    24    1
    11    24    25    1
    12    25    26    1
    13    26    27    1
    14    26    29    1
    15    29    30    1
    16    22    23   ar
    17     5     6   ar
    18     6     7   ar
    19     7     8   ar
    20     8    11    1
    21    11    12   ar
    22    12    13   ar
    23    13    14   ar
    24    14    15    1
    25    14    16   ar
    26    16    17   ar
    27     8     4   ar
    28    17    11   ar
    29    23    18   ar
    30     3     9    1
    31     3    10    1
    32    27    28    1
    33    30    31    1
