@<TRIPOS>MOLECULE
*****
 37 40 0 0 0
SMALL
GASTEIGER

@<TRIPOS>ATOM
      1 N          63.3724   85.9377   13.8663 N.am    1  UNL1       -0.2463
      2 C          63.3265   85.2513   15.1993 C.2     1  UNL1        0.2869
      3 O          63.6753   85.8684   16.5212 O.2     1  UNL1       -0.2662
      4 C          62.8707   83.8395   14.9783 C.2     1  UNL1        0.1887
      5 O          62.6835   82.7969   16.0403 O.2     1  UNL1       -0.5020
      6 C          62.6348   83.6533   13.5086 C.2     1  UNL1        0.0732
      7 C          62.9449   84.9501   12.8214 C.3     1  UNL1        0.1338
      8 H          62.8564   83.0055   16.9373 H       1  UNL1        0.2924
      9 C          64.5804   90.2098   13.1312 C.ar    1  UNL1        0.0562
     10 C          63.7529   89.4790   12.1157 C.ar    1  UNL1        0.0060
     11 C          63.3503   88.0550   12.3608 C.ar    1  UNL1        0.0151
     12 C          63.7751   87.3618   13.6213 C.ar    1  UNL1        0.0548
     13 C          64.6026   88.0925   14.6368 C.ar    1  UNL1        0.0151
     14 C          65.0052   89.5165   14.3917 C.ar    1  UNL1        0.0060
     15 C          65.7303   94.7572   10.7064 C.3     1  UNL1        0.0773
     16 C          65.5116   93.7240   11.7717 C.ar    1  UNL1        0.1812
     17 N          65.6939   93.9263   13.2468 N.ar    1  UNL1       -0.0602
     18 O          65.3672   92.6345   13.9356 O.2     1  UNL1       -0.3328
     19 C          64.9831   91.6338   12.8862 C.ar    1  UNL1        0.2597
     20 N          65.0723   92.3072   11.5488 N.ar    1  UNL1       -0.1911
     21 C          62.8450   85.2130   11.3481 C.ar    1  UNL1        0.0344
     22 C          63.7701   84.5137   10.3969 C.ar    1  UNL1        0.0007
     23 C          63.6702   84.7766    8.9235 C.ar    1  UNL1       -0.0001
     24 C          62.6450   85.7390    8.4013 C.ar    1  UNL1        0.0031
     25 C          61.7198   86.4384    9.3525 C.ar    1  UNL1        0.0366
     26 C          61.8197   86.1755   10.8259 C.ar    1  UNL1        0.1365
     27 O          60.8945   86.8749   11.7769 O.3     1  UNL1       -0.4730
     28 C          59.8927   87.8637   11.2583 C.3     1  UNL1        0.2370
     29 C          60.1883   89.3329   11.3192 C.3     1  UNL1        0.1847
     30 O          60.2293   89.6863   12.7765 O.3     1  UNL1       -0.3784
     31 H          59.3798   89.4623   13.1875 H       1  UNL1        0.2106
     32 C          62.1704   82.3918   12.8430 C.2     1  UNL1        0.1732
     33 O          61.4802   82.4559   11.5128 O.2     1  UNL1       -0.2915
     34 C          62.3961   81.0662   13.5077 C.3     1  UNL1        0.0554
     35 C          63.8411   81.1118   13.1078 C.3     1  UNL1        0.0077
     36 C          60.9511   81.0207   13.9076 C.3     1  UNL1        0.0077
     37 C          62.6219   79.7406   14.1723 C.3     1  UNL1        0.0077
@<TRIPOS>BOND
     1    15    16    1
     2    16    17   ar
     3    17    18   ar
     4    18    19   ar
     5    19     9    1
     6     9    10   ar
     7    10    11   ar
     8    11    12   ar
     9    12     1    1
    10     1     2   am
    11     2     3    2
    12     2     4    1
    13     4     5    1
    14     4     6    2
    15     6    32    1
    16    32    33    2
    17    32    34    1
    18    34    35    1
    19    34    36    1
    20    34    37    1
    21     6     7    1
    22     7    21    1
    23    21    22   ar
    24    22    23   ar
    25    23    24   ar
    26    24    25   ar
    27    25    26   ar
    28    26    27    1
    29    27    28    1
    30    28    29    1
    31    29    30    1
    32    12    13   ar
    33    13    14   ar
    34    19    20   ar
    35    20    16   ar
    36    14     9   ar
    37     7     1    1
    38    26    21   ar
    39     5     8    1
    40    30    31    1
@<TRIPOS>MOLECULE
*****
 37 40 0 0 0
SMALL
GASTEIGER

@<TRIPOS>ATOM
      1 N          63.4407   86.8437   12.9124 N.am    1  UNL1       -0.2463
      2 C          64.2616   87.5188   13.9709 C.2     1  UNL1        0.2869
      3 O          65.0543   86.8323   15.0434 O.2     1  UNL1       -0.2662
      4 C          64.1505   89.0009   13.7687 C.2     1  UNL1        0.1887
      5 O          64.8127   90.0568   14.6033 O.2     1  UNL1       -0.5020
      6 C          63.2610   89.2418   12.5851 C.2     1  UNL1        0.0732
      7 C          62.8223   87.9086   12.0560 C.3     1  UNL1        0.1338
      8 H          65.3540   89.8105   15.3274 H       1  UNL1        0.2924
      9 C          62.9241   82.4033   12.3969 C.ar    1  UNL1        0.0562
     10 C          63.4281   83.2371   11.2565 C.ar    1  UNL1        0.0060
     11 C          63.6003   84.7172   11.4283 C.ar    1  UNL1        0.0151
     12 C          63.2685   85.3635   12.7406 C.ar    1  UNL1        0.0548
     13 C          62.7645   84.5297   13.8811 C.ar    1  UNL1        0.0151
     14 C          62.5923   83.0496   13.7093 C.ar    1  UNL1        0.0060
     15 C          62.7667   77.5815   10.2506 C.3     1  UNL1        0.0773
     16 C          62.6795   78.7068   11.2386 C.ar    1  UNL1        0.1812
     17 N          62.2942   78.5839   12.6831 N.ar    1  UNL1       -0.0602
     18 O          62.3389   79.9537   13.2928 O.2     1  UNL1       -0.3328
     19 C          62.7519   80.9231   12.2251 C.ar    1  UNL1        0.2597
     20 N          62.9624   80.1524   10.9556 N.ar    1  UNL1       -0.1911
     21 C          61.9231   87.6803   10.8773 C.ar    1  UNL1        0.0344
     22 C          62.4785   87.0967    9.6120 C.ar    1  UNL1        0.0007
     23 C          61.5793   86.8685    8.4333 C.ar    1  UNL1       -0.0001
     24 C          60.1246   87.2239    8.5199 C.ar    1  UNL1        0.0031
     25 C          59.5692   87.8075    9.7852 C.ar    1  UNL1        0.0366
     26 C          60.4683   88.0357   10.9639 C.ar    1  UNL1        0.1365
     27 O          59.9129   88.6193   12.2290 O.3     1  UNL1       -0.4730
     28 C          58.4510   88.9405   12.3283 C.3     1  UNL1        0.2370
     29 C          57.6668   88.5031   13.5297 C.3     1  UNL1        0.1847
     30 O          56.2489   88.3499   13.0647 O.3     1  UNL1       -0.3784
     31 H          55.9340   89.1936   12.7043 H       1  UNL1        0.2106
     32 C          62.8775   90.5809   12.0284 C.2     1  UNL1        0.1732
     33 O          61.4783   91.0928   12.2027 O.2     1  UNL1       -0.2915
     34 C          63.8931   91.4081   11.2975 C.3     1  UNL1        0.0554
     35 C          64.4986   91.8211   12.6063 C.3     1  UNL1        0.0077
     36 C          63.2876   90.9951    9.9888 C.3     1  UNL1        0.0077
     37 C          64.9087   92.2353   10.5666 C.3     1  UNL1        0.0077
@<TRIPOS>BOND
     1    15    16    1
     2    16    17   ar
     3    17    18   ar
     4    18    19   ar
     5    19     9    1
     6     9    10   ar
     7    10    11   ar
     8    11    12   ar
     9    12     1    1
    10     1     2   am
    11     2     3    2
    12     2     4    1
    13     4     5    1
    14     4     6    2
    15     6    32    1
    16    32    33    2
    17    32    34    1
    18    34    35    1
    19    34    36    1
    20    34    37    1
    21     6     7    1
    22     7    21    1
    23    21    22   ar
    24    22    23   ar
    25    23    24   ar
    26    24    25   ar
    27    25    26   ar
    28    26    27    1
    29    27    28    1
    30    28    29    1
    31    29    30    1
    32    12    13   ar
    33    13    14   ar
    34    19    20   ar
    35    20    16   ar
    36    14     9   ar
    37     7     1    1
    38    26    21   ar
    39     5     8    1
    40    30    31    1
@<TRIPOS>MOLECULE
*****
 37 40 0 0 0
SMALL
GASTEIGER

@<TRIPOS>ATOM
      1 N          44.4861   78.1909   17.1811 N.am    1  UNL1       -0.2463
      2 C          44.2761   79.3754   16.2850 C.2     1  UNL1        0.2869
      3 O          44.1199   79.3360   14.7937 O.2     1  UNL1       -0.2662
      4 C          44.2498   80.6061   17.1421 C.2     1  UNL1        0.1887
      5 O          44.0627   82.0136   16.6583 O.2     1  UNL1       -0.5020
      6 C          44.4435   80.1823   18.5679 C.2     1  UNL1        0.0732
      7 C          44.5895   78.6896   18.5920 C.3     1  UNL1        0.1338
      8 H          43.9483   82.1834   15.7439 H       1  UNL1        0.2924
      9 C          44.7579   73.8955   15.8674 C.ar    1  UNL1        0.0562
     10 C          45.6916   74.4189   16.9183 C.ar    1  UNL1        0.0060
     11 C          45.6010   75.8507   17.3561 C.ar    1  UNL1        0.0151
     12 C          44.5767   76.7590   16.7432 C.ar    1  UNL1        0.0548
     13 C          43.6430   76.2357   15.6924 C.ar    1  UNL1        0.0151
     14 C          43.7336   74.8039   15.2545 C.ar    1  UNL1        0.0060
     15 C          46.4028   68.9091   15.3096 C.3     1  UNL1        0.0773
     16 C          45.6046   70.1717   15.1731 C.ar    1  UNL1        0.1812
     17 N          44.3711   70.3491   14.3381 N.ar    1  UNL1       -0.0602
     18 O          43.9038   71.7656   14.4966 O.2     1  UNL1       -0.3328
     19 C          44.8485   72.4637   15.4295 C.ar    1  UNL1        0.2597
     20 N          45.8996   71.4786   15.8476 N.ar    1  UNL1       -0.1911
     21 C          44.8017   77.8441   19.8127 C.ar    1  UNL1        0.0344
     22 C          43.6335   77.4600   20.6714 C.ar    1  UNL1        0.0007
     23 C          43.8457   76.6145   21.8921 C.ar    1  UNL1       -0.0001
     24 C          45.2263   76.1531   22.2541 C.ar    1  UNL1        0.0031
     25 C          46.3946   76.5373   21.3954 C.ar    1  UNL1        0.0366
     26 C          46.1824   77.3828   20.1747 C.ar    1  UNL1        0.1365
     27 O          47.3507   77.7669   19.3161 O.3     1  UNL1       -0.4730
     28 C          48.6330   76.9935   19.4046 C.3     1  UNL1        0.2370
     29 C          48.6192   75.5001   19.2660 C.3     1  UNL1        0.1847
     30 O          49.1420   74.9596   20.5640 O.3     1  UNL1       -0.3784
     31 H          50.0330   75.3083   20.7240 H       1  UNL1        0.2106
     32 C          44.4841   81.0915   19.7602 C.2     1  UNL1        0.1732
     33 O          43.8741   82.4596   19.6813 O.2     1  UNL1       -0.2915
     34 C          45.1347   80.6327   21.0315 C.3     1  UNL1        0.0554
     35 C          46.4836   80.7656   20.3891 C.3     1  UNL1        0.0077
     36 C          43.7858   80.4998   21.6739 C.3     1  UNL1        0.0077
     37 C          45.7853   80.1739   22.3028 C.3     1  UNL1        0.0077
@<TRIPOS>BOND
     1    15    16    1
     2    16    17   ar
     3    17    18   ar
     4    18    19   ar
     5    19     9    1
     6     9    10   ar
     7    10    11   ar
     8    11    12   ar
     9    12     1    1
    10     1     2   am
    11     2     3    2
    12     2     4    1
    13     4     5    1
    14     4     6    2
    15     6    32    1
    16    32    33    2
    17    32    34    1
    18    34    35    1
    19    34    36    1
    20    34    37    1
    21     6     7    1
    22     7    21    1
    23    21    22   ar
    24    22    23   ar
    25    23    24   ar
    26    24    25   ar
    27    25    26   ar
    28    26    27    1
    29    27    28    1
    30    28    29    1
    31    29    30    1
    32    12    13   ar
    33    13    14   ar
    34    19    20   ar
    35    20    16   ar
    36    14     9   ar
    37     7     1    1
    38    26    21   ar
    39     5     8    1
    40    30    31    1
@<TRIPOS>MOLECULE
*****
 37 40 0 0 0
SMALL
GASTEIGER

@<TRIPOS>ATOM
      1 N          63.4521   86.0717   14.1068 N.am    1  UNL1       -0.2463
      2 C          63.4620   85.3882   15.4420 C.2     1  UNL1        0.2869
      3 O          63.8843   86.0024   16.7438 O.2     1  UNL1       -0.2662
      4 C          62.9756   83.9827   15.2470 C.2     1  UNL1        0.1887
      5 O          62.8260   82.9447   16.3194 O.2     1  UNL1       -0.5020
      6 C          62.6650   83.7976   13.7912 C.2     1  UNL1        0.0732
      7 C          62.9595   85.0886   13.0866 C.3     1  UNL1        0.1338
      8 H          63.0458   83.1523   17.2063 H       1  UNL1        0.2924
      9 C          64.6837   90.3245   13.3031 C.ar    1  UNL1        0.0562
     10 C          63.7772   89.6122   12.3435 C.ar    1  UNL1        0.0060
     11 C          63.3667   88.1946   12.6114 C.ar    1  UNL1        0.0151
     12 C          63.8626   87.4893   13.8389 C.ar    1  UNL1        0.0548
     13 C          64.7691   88.2017   14.7985 C.ar    1  UNL1        0.0151
     14 C          65.1796   89.6193   14.5306 C.ar    1  UNL1        0.0060
     15 C          65.7852   94.8486   10.8130 C.3     1  UNL1        0.0773
     16 C          65.6006   93.8217   11.8906 C.ar    1  UNL1        0.1812
     17 N          65.8515   94.0258   13.3554 N.ar    1  UNL1       -0.0602
     18 O          65.5386   92.7406   14.0627 O.2     1  UNL1       -0.3328
     19 C          65.0942   91.7422   13.0352 C.ar    1  UNL1        0.2597
     20 N          65.1326   92.4104   11.6928 N.ar    1  UNL1       -0.1911
     21 C          62.7910   85.3505   11.6193 C.ar    1  UNL1        0.0344
     22 C          61.8859   86.4520   11.1531 C.ar    1  UNL1        0.0007
     23 C          61.7173   86.7139    9.6858 C.ar    1  UNL1       -0.0001
     24 C          62.4540   85.8743    8.6846 C.ar    1  UNL1        0.0031
     25 C          63.3591   84.7727    9.1508 C.ar    1  UNL1        0.0366
     26 C          63.5277   84.5108   10.6181 C.ar    1  UNL1        0.1365
     27 O          64.4328   83.4093   11.0842 O.3     1  UNL1       -0.4730
     28 C          64.6740   82.2156   10.2085 C.3     1  UNL1        0.2370
     29 C          63.5138   81.4182    9.6911 C.3     1  UNL1        0.1847
     30 O          63.1008   80.5130   10.8136 O.3     1  UNL1       -0.3784
     31 H          63.8502   79.9527   11.0695 H       1  UNL1        0.2106
     32 C          62.1503   82.5418   13.1523 C.2     1  UNL1        0.1732
     33 O          61.4193   82.6111   11.8443 O.2     1  UNL1       -0.2915
     34 C          62.3667   81.2169   13.8213 C.3     1  UNL1        0.0554
     35 C          60.8886   81.0863   14.0408 C.3     1  UNL1        0.0077
     36 C          63.8447   81.3474   13.6018 C.3     1  UNL1        0.0077
     37 C          62.5830   79.8919   14.4903 C.3     1  UNL1        0.0077
@<TRIPOS>BOND
     1    15    16    1
     2    16    17   ar
     3    17    18   ar
     4    18    19   ar
     5    19     9    1
     6     9    10   ar
     7    10    11   ar
     8    11    12   ar
     9    12     1    1
    10     1     2   am
    11     2     3    2
    12     2     4    1
    13     4     5    1
    14     4     6    2
    15     6    32    1
    16    32    33    2
    17    32    34    1
    18    34    35    1
    19    34    36    1
    20    34    37    1
    21     6     7    1
    22     7    21    1
    23    21    22   ar
    24    22    23   ar
    25    23    24   ar
    26    24    25   ar
    27    25    26   ar
    28    26    27    1
    29    27    28    1
    30    28    29    1
    31    29    30    1
    32    12    13   ar
    33    13    14   ar
    34    19    20   ar
    35    20    16   ar
    36    14     9   ar
    37     7     1    1
    38    26    21   ar
    39     5     8    1
    40    30    31    1
