@<TRIPOS>MOLECULE
*****
 38 41 0 0 0
SMALL
GASTEIGER

@<TRIPOS>ATOM
      1 C          63.6889   86.8493   15.7671 C.3     1  UNL1        0.1812
      2 O          64.2516   87.0630   14.3932 O.3     1  UNL1       -0.3784
      3 H          64.4786   86.2059   13.9998 H       1  UNL1        0.2106
      4 C          63.1262   86.6356   17.1410 C.3     1  UNL1        0.4197
      5 F          62.5635   86.4219   18.5150 F       1  UNL1       -0.1676
      6 F          63.8770   85.3413   17.2472 F       1  UNL1       -0.1676
      7 F          62.3755   87.9298   17.0349 F       1  UNL1       -0.1676
      8 C          63.8623   85.3678   15.6077 C.3     1  UNL1        0.0398
      9 C          65.1441   84.4819   14.1683 C.3     1  UNL1        0.0045
     10 C          63.6679   84.7303   14.2639 C.3     1  UNL1        0.0216
     11 C          62.1917   84.9787   14.3596 C.3     1  UNL1        0.0045
     12 C          63.4736   84.0928   12.9201 C.ar    1  UNL1       -0.0184
     13 C          63.5162   84.9330   11.6782 C.ar    1  UNL1       -0.0041
     14 C          63.3218   84.2954   10.3344 C.ar    1  UNL1       -0.0003
     15 C          63.0848   82.8177   10.2325 C.ar    1  UNL1        0.0001
     16 C          63.0423   81.9776   11.4744 C.ar    1  UNL1        0.0042
     17 C          63.2366   82.6151   12.8182 C.ar    1  UNL1        0.0492
     18 C          63.1940   81.7750   14.0602 C.2     1  UNL1        0.2424
     19 N          61.9333   81.6955   14.8690 N.am    1  UNL1       -0.3253
     20 O          64.4122   81.0143   14.4932 O.2     1  UNL1       -0.2704
     21 H          61.1338   82.1947   14.5848 H       1  UNL1        0.1453
     22 H          61.9053   81.1440   15.6841 H       1  UNL1        0.1453
     23 C          63.5156   88.3306   15.9266 C.3     1  UNL1        0.0811
     24 C          63.7788   89.2456   14.7675 C.2     1  UNL1        0.0614
     25 C          64.9143   90.2191   14.6527 C.2     1  UNL1        0.0163
     26 C          64.7900   90.9229   13.3339 C.2     1  UNL1        0.0264
     27 C          65.6241   91.9845   12.6803 C.2     1  UNL1        0.0903
     28 C          65.2459   92.5076   11.3262 C.2     1  UNL1        0.3192
     29 N          64.0337   91.9691   10.6259 N.2     1  UNL1       -0.0585
     30 C          63.1996   90.9075   11.2795 C.3     1  UNL1        0.3085
     31 C          63.5778   90.3844   12.6335 C.2     1  UNL1        0.1121
     32 N          62.9528   89.3477   13.5195 N.2     1  UNL1       -0.2495
     33 N          66.0800   93.5692   10.6726 N.pl3   1  UNL1       -0.1860
     34 C          65.7854   95.0177   10.9280 C.3     1  UNL1        0.2346
     35 C          66.6194   96.0794   10.2744 C.3     1  UNL1        0.1929
     36 O          67.7482   95.6925    9.3653 O.3     1  UNL1       -0.3449
     37 C          68.0428   94.2441    9.1099 C.3     1  UNL1        0.1929
     38 C          67.2087   93.1825    9.7635 C.3     1  UNL1        0.2346
@<TRIPOS>BOND
     1     9    10    1
     2    10    11    1
     3    10     8    1
     4     8     1    1
     5     1     2    1
     6     1    23    1
     7    23    24    1
     8    24    25    2
     9    25    26    1
    10    26    27    2
    11    27    28    1
    12    28    33    1
    13    33    34    1
    14    34    35    1
    15    35    36    1
    16    36    37    1
    17    37    38    1
    18    28    29    2
    19    29    30    1
    20    30    31    1
    21    31    32    2
    22     1     4    1
    23     4     5    1
    24     4     6    1
    25     4     7    1
    26    10    12    1
    27    12    13   ar
    28    13    14   ar
    29    14    15   ar
    30    15    16   ar
    31    16    17   ar
    32    17    18    1
    33    18    19   am
    34    18    20    2
    35    32    24    1
    36    17    12   ar
    37    31    26    1
    38    38    33    1
    39     2     3    1
    40    19    21    1
    41    19    22    1
@<TRIPOS>MOLECULE
*****
 38 41 0 0 0
SMALL
GASTEIGER

@<TRIPOS>ATOM
      1 C          62.3522   86.4540   10.7788 C.3     1  UNL1        0.1812
      2 O          63.1694   86.4193   12.0361 O.3     1  UNL1       -0.3784
      3 H          63.7287   85.6268   12.0364 H       1  UNL1        0.2106
      4 C          61.5350   86.4888    9.5214 C.3     1  UNL1        0.4197
      5 F          60.7178   86.5235    8.2640 F       1  UNL1       -0.1676
      6 F          60.3246   86.8752   10.3187 F       1  UNL1       -0.1676
      7 F          62.7454   86.1024    8.7241 F       1  UNL1       -0.1676
      8 C          62.9807   85.1664   10.3347 C.3     1  UNL1        0.0398
      9 C          61.7066   84.4235   11.8594 C.3     1  UNL1        0.0045
     10 C          63.0119   83.9880   11.2622 C.3     1  UNL1        0.0216
     11 C          64.3172   83.5526   10.6651 C.3     1  UNL1        0.0045
     12 C          63.0431   82.8096   12.1898 C.ar    1  UNL1       -0.0184
     13 C          62.5231   81.4797   11.7305 C.ar    1  UNL1       -0.0041
     14 C          62.5543   80.3012   12.6581 C.ar    1  UNL1       -0.0003
     15 C          63.1055   80.4528   14.0449 C.ar    1  UNL1        0.0001
     16 C          63.6255   81.7827   14.5041 C.ar    1  UNL1        0.0042
     17 C          63.5943   82.9611   13.5766 C.ar    1  UNL1        0.0492
     18 C          64.1143   84.2911   14.0359 C.2     1  UNL1        0.2424
     19 N          65.5890   84.5651   14.0223 N.am    1  UNL1       -0.3253
     20 O          63.1596   85.3470   14.5087 O.2     1  UNL1       -0.2704
     21 H          66.2156   83.8720   13.7120 H       1  UNL1        0.1453
     22 H          65.9303   85.4379   14.3237 H       1  UNL1        0.1453
     23 C          61.7237   87.7416   11.2228 C.3     1  UNL1        0.0811
     24 C          62.5742   88.9601   11.4267 C.2     1  UNL1        0.0614
     25 C          63.0013   89.9257   10.3611 C.2     1  UNL1        0.0163
     26 C          63.8381   90.9895   11.0078 C.2     1  UNL1        0.0264
     27 C          64.5296   92.1988   10.4517 C.2     1  UNL1        0.0903
     28 C          65.3113   93.1001   11.3610 C.2     1  UNL1        0.3192
     29 N          65.4015   92.7921   12.8262 N.2     1  UNL1       -0.0585
     30 C          64.7099   91.5827   13.3822 C.3     1  UNL1        0.3085
     31 C          63.9283   90.6814   12.4731 C.2     1  UNL1        0.1121
     32 N          63.1471   89.4272   12.7320 N.2     1  UNL1       -0.2495
     33 N          66.0029   94.3095   10.8049 N.pl3   1  UNL1       -0.1860
     34 C          66.8757   94.1827    9.5915 C.3     1  UNL1        0.2346
     35 C          67.5672   95.3921    9.0354 C.3     1  UNL1        0.1929
     36 O          67.3860   96.7282    9.6928 O.3     1  UNL1       -0.3449
     37 C          66.5132   96.8549   10.9061 C.3     1  UNL1        0.1929
     38 C          65.8216   95.6456   11.4621 C.3     1  UNL1        0.2346
@<TRIPOS>BOND
     1     9    10    1
     2    10    11    1
     3    10     8    1
     4     8     1    1
     5     1     2    1
     6     1    23    1
     7    23    24    1
     8    24    25    2
     9    25    26    1
    10    26    27    2
    11    27    28    1
    12    28    33    1
    13    33    34    1
    14    34    35    1
    15    35    36    1
    16    36    37    1
    17    37    38    1
    18    28    29    2
    19    29    30    1
    20    30    31    1
    21    31    32    2
    22     1     4    1
    23     4     5    1
    24     4     6    1
    25     4     7    1
    26    10    12    1
    27    12    13   ar
    28    13    14   ar
    29    14    15   ar
    30    15    16   ar
    31    16    17   ar
    32    17    18    1
    33    18    19   am
    34    18    20    2
    35    32    24    1
    36    17    12   ar
    37    31    26    1
    38    38    33    1
    39     2     3    1
    40    19    21    1
    41    19    22    1
@<TRIPOS>MOLECULE
*****
 38 41 0 0 0
SMALL
GASTEIGER

@<TRIPOS>ATOM
      1 C          63.6051   87.0639   15.9128 C.3     1  UNL1        0.1812
      2 O          64.2412   87.2547   14.5678 O.3     1  UNL1       -0.3784
      3 H          64.5570   86.3999   14.2354 H       1  UNL1        0.2106
      4 C          62.9690   86.8732   17.2578 C.3     1  UNL1        0.4197
      5 F          62.3329   86.6824   18.6028 F       1  UNL1       -0.1676
      6 F          63.8058   85.6482   17.4798 F       1  UNL1       -0.1676
      7 F          62.1323   88.0981   17.0358 F       1  UNL1       -0.1676
      8 C          63.8982   85.5944   15.8431 C.3     1  UNL1        0.0398
      9 C          62.4224   84.5556   14.7283 C.3     1  UNL1        0.0045
     10 C          63.8708   84.8861   14.5212 C.3     1  UNL1        0.0216
     11 C          65.3192   85.2166   14.3140 C.3     1  UNL1        0.0045
     12 C          63.8433   84.1778   13.1992 C.ar    1  UNL1       -0.0184
     13 C          64.4834   82.8285   13.0579 C.ar    1  UNL1       -0.0041
     14 C          64.4559   82.1202   11.7359 C.ar    1  UNL1       -0.0003
     15 C          63.7883   82.7611   10.5554 C.ar    1  UNL1        0.0001
     16 C          63.1483   84.1102   10.6968 C.ar    1  UNL1        0.0042
     17 C          63.1757   84.8186   12.0187 C.ar    1  UNL1        0.0492
     18 C          62.5356   86.1678   12.1601 C.2     1  UNL1        0.2424
     19 N          63.3904   87.3935   12.2902 N.am    1  UNL1       -0.3253
     20 O          61.0408   86.2912   12.1712 O.2     1  UNL1       -0.2704
     21 H          64.3715   87.3125   12.2829 H       1  UNL1        0.1453
     22 H          62.9703   88.2790   12.3830 H       1  UNL1        0.1453
     23 C          63.3119   88.5333   15.9826 C.3     1  UNL1        0.0811
     24 C          63.6159   89.4153   14.8080 C.2     1  UNL1        0.0614
     25 C          64.8003   90.3257   14.6721 C.2     1  UNL1        0.0163
     26 C          64.7052   91.0148   13.3432 C.2     1  UNL1        0.0264
     27 C          65.5900   92.0209   12.6687 C.2     1  UNL1        0.0903
     28 C          65.2316   92.5425   11.3086 C.2     1  UNL1        0.3192
     29 N          63.9886   92.0579   10.6231 N.2     1  UNL1       -0.0585
     30 C          63.1038   91.0518   11.2976 C.3     1  UNL1        0.3085
     31 C          63.4621   90.5303   12.6576 C.2     1  UNL1        0.1121
     32 N          62.7888   89.5417   13.5629 N.2     1  UNL1       -0.2495
     33 N          66.1164   93.5486   10.6341 N.pl3   1  UNL1       -0.1860
     34 C          67.2484   93.0881    9.7642 C.3     1  UNL1        0.2346
     35 C          68.1332   94.0942    9.0898 C.3     1  UNL1        0.1929
     36 O          67.8860   95.5608    9.2851 O.3     1  UNL1       -0.3449
     37 C          66.7540   96.0212   10.1550 C.3     1  UNL1        0.1929
     38 C          65.8692   95.0151   10.8295 C.3     1  UNL1        0.2346
@<TRIPOS>BOND
     1     9    10    1
     2    10    11    1
     3    10     8    1
     4     8     1    1
     5     1     2    1
     6     1    23    1
     7    23    24    1
     8    24    25    2
     9    25    26    1
    10    26    27    2
    11    27    28    1
    12    28    33    1
    13    33    34    1
    14    34    35    1
    15    35    36    1
    16    36    37    1
    17    37    38    1
    18    28    29    2
    19    29    30    1
    20    30    31    1
    21    31    32    2
    22     1     4    1
    23     4     5    1
    24     4     6    1
    25     4     7    1
    26    10    12    1
    27    12    13   ar
    28    13    14   ar
    29    14    15   ar
    30    15    16   ar
    31    16    17   ar
    32    17    18    1
    33    18    19   am
    34    18    20    2
    35    32    24    1
    36    17    12   ar
    37    31    26    1
    38    38    33    1
    39     2     3    1
    40    19    21    1
    41    19    22    1
@<TRIPOS>MOLECULE
*****
 38 41 0 0 0
SMALL
GASTEIGER

@<TRIPOS>ATOM
      1 C          63.6177   87.3753   15.7130 C.3     1  UNL1        0.1812
      2 O          64.2591   87.5230   14.3652 O.3     1  UNL1       -0.3784
      3 H          64.5960   86.6621   14.0714 H       1  UNL1        0.2106
      4 C          62.9762   87.2277   17.0609 C.3     1  UNL1        0.4197
      5 F          62.3347   87.0800   18.4087 F       1  UNL1       -0.1676
      6 F          63.7468   85.9610   17.2889 F       1  UNL1       -0.1676
      7 F          62.2057   88.4942   16.8329 F       1  UNL1       -0.1676
      8 C          63.9435   85.9111   15.7077 C.3     1  UNL1        0.0398
      9 C          65.3598   85.3876   14.2178 C.3     1  UNL1        0.0045
     10 C          63.8954   85.1367   14.4240 C.3     1  UNL1        0.0216
     11 C          62.4310   84.8858   14.6302 C.3     1  UNL1        0.0045
     12 C          63.8473   84.3623   13.1403 C.ar    1  UNL1       -0.0184
     13 C          64.4902   83.0096   13.0558 C.ar    1  UNL1       -0.0041
     14 C          64.4421   82.2352   11.7720 C.ar    1  UNL1       -0.0003
     15 C          63.7510   82.8135   10.5728 C.ar    1  UNL1        0.0001
     16 C          63.1081   84.1661   10.6573 C.ar    1  UNL1        0.0042
     17 C          63.1563   84.9405   11.9410 C.ar    1  UNL1        0.0492
     18 C          62.5133   86.2931   12.0255 C.2     1  UNL1        0.2424
     19 N          61.0385   86.4383   11.7940 N.am    1  UNL1       -0.3253
     20 O          63.3454   87.5006   12.3415 O.2     1  UNL1       -0.2704
     21 H          60.4924   85.6458   11.5867 H       1  UNL1        0.1453
     22 H          60.6165   87.3260   11.8495 H       1  UNL1        0.1453
     23 C          63.2918   88.8395   15.7183 C.3     1  UNL1        0.0811
     24 C          64.1515   89.8019   14.9538 C.2     1  UNL1        0.0614
     25 C          63.7185   90.6315   13.7814 C.2     1  UNL1        0.0163
     26 C          64.8945   91.4460   13.3303 C.2     1  UNL1        0.0264
     27 C          65.0591   92.4426   12.2214 C.2     1  UNL1        0.0903
     28 C          66.3836   93.1130   12.0059 C.2     1  UNL1        0.3192
     29 N          67.5434   92.7869   12.8994 N.2     1  UNL1       -0.0585
     30 C          67.3788   91.7903   14.0084 C.3     1  UNL1        0.3085
     31 C          66.0544   91.1199   14.2238 C.2     1  UNL1        0.1121
     32 N          65.5952   90.1037   15.2272 N.2     1  UNL1       -0.2495
     33 N          66.5482   94.1096   10.8970 N.pl3   1  UNL1       -0.1860
     34 C          66.0859   95.5242   11.0852 C.3     1  UNL1        0.2346
     35 C          66.2505   96.5208    9.9763 C.3     1  UNL1        0.1929
     36 O          66.8774   96.1028    8.6791 O.3     1  UNL1       -0.3449
     37 C          67.3396   94.6883    8.4910 C.3     1  UNL1        0.1929
     38 C          67.1750   93.6917    9.6000 C.3     1  UNL1        0.2346
@<TRIPOS>BOND
     1     9    10    1
     2    10    11    1
     3    10     8    1
     4     8     1    1
     5     1     2    1
     6     1    23    1
     7    23    24    1
     8    24    25    2
     9    25    26    1
    10    26    27    2
    11    27    28    1
    12    28    33    1
    13    33    34    1
    14    34    35    1
    15    35    36    1
    16    36    37    1
    17    37    38    1
    18    28    29    2
    19    29    30    1
    20    30    31    1
    21    31    32    2
    22     1     4    1
    23     4     5    1
    24     4     6    1
    25     4     7    1
    26    10    12    1
    27    12    13   ar
    28    13    14   ar
    29    14    15   ar
    30    15    16   ar
    31    16    17   ar
    32    17    18    1
    33    18    19   am
    34    18    20    2
    35    32    24    1
    36    17    12   ar
    37    31    26    1
    38    38    33    1
    39     2     3    1
    40    19    21    1
    41    19    22    1
@<TRIPOS>MOLECULE
*****
 38 41 0 0 0
SMALL
GASTEIGER

@<TRIPOS>ATOM
      1 C          60.1452   88.3024    9.5486 C.3     1  UNL1        0.1812
      2 O          59.7551   89.7382    9.3577 O.3     1  UNL1       -0.3784
      3 H          59.9961   90.2465   10.1479 H       1  UNL1        0.2106
      4 C          60.5354   86.8667    9.7394 C.3     1  UNL1        0.4197
      5 F          60.9255   85.4309    9.9303 F       1  UNL1       -0.1676
      6 F          60.8489   86.7574    8.2766 F       1  UNL1       -0.1676
      7 F          60.2219   86.9760   11.2022 F       1  UNL1       -0.1676
      8 C          60.6785   88.6285   10.9122 C.3     1  UNL1        0.0398
      9 C          60.9387   90.5133   11.8502 C.3     1  UNL1        0.0045
     10 C          61.8195   89.5908   11.0609 C.3     1  UNL1        0.0216
     11 C          62.7004   88.6682   10.2716 C.3     1  UNL1        0.0045
     12 C          62.9606   90.5530   11.2096 C.ar    1  UNL1       -0.0184
     13 C          63.2974   91.4954   10.0922 C.ar    1  UNL1       -0.0041
     14 C          64.4384   92.4577   10.2409 C.ar    1  UNL1       -0.0003
     15 C          65.2426   92.4775   11.5070 C.ar    1  UNL1        0.0001
     16 C          64.9058   91.5351   12.6243 C.ar    1  UNL1        0.0042
     17 C          63.7647   90.5729   12.4756 C.ar    1  UNL1        0.0492
     18 C          63.4279   89.6305   13.5930 C.2     1  UNL1        0.2424
     19 N          62.6956   90.1321   14.8021 N.am    1  UNL1       -0.3253
     20 O          63.8234   88.1865   13.5012 O.2     1  UNL1       -0.2704
     21 H          62.4360   91.0799   14.8624 H       1  UNL1        0.1453
     22 H          62.4745   89.5136   15.5355 H       1  UNL1        0.1453
     23 C          59.6121   87.9763    8.1850 C.3     1  UNL1        0.0811
     24 C          59.5658   89.0362    7.1246 C.2     1  UNL1        0.0614
     25 C          60.7385   89.5594    6.3492 C.2     1  UNL1        0.0163
     26 C          60.2363   90.6056    5.3988 C.2     1  UNL1        0.0264
     27 C          60.9378   91.4618    4.3865 C.2     1  UNL1        0.0903
     28 C          60.1562   92.4414    3.5621 C.2     1  UNL1        0.3192
     29 N          58.6731   92.5647    3.7500 N.2     1  UNL1       -0.0585
     30 C          57.9716   91.7084    4.7623 C.3     1  UNL1        0.3085
     31 C          58.7532   90.7289    5.5867 C.2     1  UNL1        0.1121
     32 N          58.3388   89.7589    6.6533 N.2     1  UNL1       -0.2495
     33 N          60.8577   93.2976    2.5497 N.pl3   1  UNL1       -0.1860
     34 C          62.1392   92.8268    1.9283 C.3     1  UNL1        0.2346
     35 C          62.8407   93.6830    0.9159 C.3     1  UNL1        0.1929
     36 O          62.2607   95.0101    0.5251 O.3     1  UNL1       -0.3449
     37 C          60.9792   95.4808    1.1466 C.3     1  UNL1        0.1929
     38 C          60.2777   94.6246    2.1589 C.3     1  UNL1        0.2346
@<TRIPOS>BOND
     1     9    10    1
     2    10    11    1
     3    10     8    1
     4     8     1    1
     5     1     2    1
     6     1    23    1
     7    23    24    1
     8    24    25    2
     9    25    26    1
    10    26    27    2
    11    27    28    1
    12    28    33    1
    13    33    34    1
    14    34    35    1
    15    35    36    1
    16    36    37    1
    17    37    38    1
    18    28    29    2
    19    29    30    1
    20    30    31    1
    21    31    32    2
    22     1     4    1
    23     4     5    1
    24     4     6    1
    25     4     7    1
    26    10    12    1
    27    12    13   ar
    28    13    14   ar
    29    14    15   ar
    30    15    16   ar
    31    16    17   ar
    32    17    18    1
    33    18    19   am
    34    18    20    2
    35    32    24    1
    36    17    12   ar
    37    31    26    1
    38    38    33    1
    39     2     3    1
    40    19    21    1
    41    19    22    1
@<TRIPOS>MOLECULE
*****
 38 41 0 0 0
SMALL
GASTEIGER

@<TRIPOS>ATOM
      1 C          62.2945   86.2579   10.6273 C.3     1  UNL1        0.1812
      2 O          63.0213   86.1121   11.9313 O.3     1  UNL1       -0.3784
      3 H          63.5345   85.2890   11.9252 H       1  UNL1        0.2106
      4 C          61.5678   86.4036    9.3233 C.3     1  UNL1        0.4197
      5 F          60.8411   86.5494    8.0191 F       1  UNL1       -0.1676
      6 F          60.3115   86.7570   10.0628 F       1  UNL1       -0.1676
      7 F          62.8240   86.0503    8.5837 F       1  UNL1       -0.1676
      8 C          62.8794   84.9594   10.1561 C.3     1  UNL1        0.0398
      9 C          64.2067   83.3278   10.4321 C.3     1  UNL1        0.0045
     10 C          62.9335   83.7811   11.0829 C.3     1  UNL1        0.0216
     11 C          61.6603   84.2344   11.7336 C.3     1  UNL1        0.0045
     12 C          62.9876   82.6028   12.0096 C.ar    1  UNL1       -0.0184
     13 C          62.5705   81.2465   11.5233 C.ar    1  UNL1       -0.0041
     14 C          62.6246   80.0682   12.4500 C.ar    1  UNL1       -0.0003
     15 C          63.0959   80.2463   13.8630 C.ar    1  UNL1        0.0001
     16 C          63.5129   81.6026   14.3491 C.ar    1  UNL1        0.0042
     17 C          63.4588   82.7809   13.4224 C.ar    1  UNL1        0.0492
     18 C          63.8760   84.1373   13.9086 C.2     1  UNL1        0.2424
     19 N          65.2984   84.5861   13.7502 N.am    1  UNL1       -0.3253
     20 O          62.8705   85.0448   14.5533 O.2     1  UNL1       -0.2704
     21 H          65.9583   83.9904   13.3271 H       1  UNL1        0.1453
     22 H          65.5722   85.4763   14.0693 H       1  UNL1        0.1453
     23 C          61.7097   87.5563   11.0984 C.3     1  UNL1        0.0811
     24 C          62.6134   88.6788   11.5143 C.2     1  UNL1        0.0614
     25 C          63.5115   88.6888   12.7158 C.2     1  UNL1        0.0163
     26 C          64.2309   90.0047   12.7459 C.2     1  UNL1        0.0264
     27 C          65.2403   90.5752   13.6976 C.2     1  UNL1        0.0903
     28 C          65.7964   91.9490   13.4663 C.2     1  UNL1        0.3192
     29 N          65.3430   92.7523   12.2835 N.2     1  UNL1       -0.0585
     30 C          64.3337   92.1818   11.3318 C.3     1  UNL1        0.3085
     31 C          63.7776   90.8080   11.5630 C.2     1  UNL1        0.1121
     32 N          62.7779   89.9885   10.8018 N.2     1  UNL1       -0.2495
     33 N          66.8057   92.5196   14.4180 N.pl3   1  UNL1       -0.1860
     34 C          67.5648   91.6114   15.3394 C.3     1  UNL1        0.2346
     35 C          68.5742   92.1819   16.2911 C.3     1  UNL1        0.1929
     36 O          68.8244   93.6606   16.3213 O.3     1  UNL1       -0.3449
     37 C          68.0653   94.5687   15.3999 C.3     1  UNL1        0.1929
     38 C          67.0560   93.9982   14.4483 C.3     1  UNL1        0.2346
@<TRIPOS>BOND
     1     9    10    1
     2    10    11    1
     3    10     8    1
     4     8     1    1
     5     1     2    1
     6     1    23    1
     7    23    24    1
     8    24    25    2
     9    25    26    1
    10    26    27    2
    11    27    28    1
    12    28    33    1
    13    33    34    1
    14    34    35    1
    15    35    36    1
    16    36    37    1
    17    37    38    1
    18    28    29    2
    19    29    30    1
    20    30    31    1
    21    31    32    2
    22     1     4    1
    23     4     5    1
    24     4     6    1
    25     4     7    1
    26    10    12    1
    27    12    13   ar
    28    13    14   ar
    29    14    15   ar
    30    15    16   ar
    31    16    17   ar
    32    17    18    1
    33    18    19   am
    34    18    20    2
    35    32    24    1
    36    17    12   ar
    37    31    26    1
    38    38    33    1
    39     2     3    1
    40    19    21    1
    41    19    22    1
