@<TRIPOS>MOLECULE
*****
 54 58 0 0 0
SMALL
GASTEIGER

@<TRIPOS>ATOM
      1 C          60.6285   88.8473    9.1468 C.3     1  UNL1        0.0760
      2 C          59.4730   89.3446    6.8736 C.2     1  UNL1        0.2406
      3 O          59.8632   87.9839    6.3775 O.2     1  UNL1       -0.2733
      4 N          59.8557   89.7764    8.2583 N.am    1  UNL1       -0.3043
      5 H          59.5995   90.6695    8.5839 H       1  UNL1        0.1494
      6 N          61.1608   92.2199    3.4794 N.am    1  UNL1       -0.2566
      7 C          62.6128   92.3376    3.1221 C.3     1  UNL1        0.1168
      8 C          60.7299   91.2819    4.5678 C.2     1  UNL1        0.3079
      9 O          61.7511   90.4616    5.2988 O.2     1  UNL1       -0.2523
     10 N          59.2779   91.1642    4.9251 N.am    1  UNL1       -0.2559
     11 C          58.1486   91.9162    4.2854 C.3     1  UNL1        0.1108
     12 C          56.8730   91.4905    4.9499 C.3     1  UNL1        0.0731
     13 N          55.4980   91.9919    4.6216 N.3     1  UNL1       -0.3208
     14 C          57.2138   90.4754    6.0003 C.3     1  UNL1        0.0465
     15 C          58.7001   90.2737    5.9850 C.3     1  UNL1        0.1544
     16 H          55.5567   92.6765    3.8677 H       1  UNL1        0.1189
     17 H          55.0896   92.4298    5.4474 H       1  UNL1        0.1189
     18 C          60.1395   93.0401    2.7484 C.3     1  UNL1        0.1413
     19 C          59.0934   92.7950   -0.9812 C.ar    1  UNL1        0.0875
     20 N          58.7433   92.9062    0.4730 N.ar    1  UNL1       -0.2453
     21 C          60.0219   92.9359    1.2567 C.ar    1  UNL1        0.0858
     22 C          61.1623   92.8430    0.2868 C.ar    1  UNL1        0.0530
     23 S          60.5885   92.7559   -1.0965 S.2     1  UNL1       -0.0705
     24 C          56.7019   92.3100   -1.8732 C.3     1  UNL1        0.0069
     25 C          58.1194   92.7336   -2.1204 C.3     1  UNL1        0.0465
     26 C          58.5631   93.0957   -3.5068 C.3     1  UNL1        0.0069
     27 C          61.7561   89.3747    9.9836 C.3     1  UNL1        0.0216
     28 C          61.5802   89.5339   11.4647 C.3     1  UNL1        0.0217
     29 C          62.7821   89.6525   12.3543 C.3     1  UNL1        0.0792
     30 N          63.5490   88.4244   12.7465 N.am    1  UNL1       -0.2720
     31 C          63.9212   88.1992   14.1820 C.2     1  UNL1        0.4019
     32 O          63.5265   89.2020   15.2254 O.2     1  UNL1       -0.2264
     33 H          63.8080   87.7662   12.0617 H       1  UNL1        0.1527
     34 O          64.6881   86.9711   14.5742 O.3     1  UNL1       -0.4291
     35 C          64.0549   85.9443   15.4656 C.3     1  UNL1        0.2447
     36 C          63.7144   84.5878   14.9232 C.ar    1  UNL1        0.0714
     37 C          64.5829   83.7516   14.0308 C.ar    1  UNL1        0.1053
     38 N          63.8509   82.4764   13.7341 N.ar    1  UNL1       -0.2350
     39 C          62.5300   82.5245   14.4431 C.ar    1  UNL1        0.1343
     40 S          62.4456   83.8294   15.1780 S.2     1  UNL1       -0.0652
     41 C          63.2172   90.9990   12.8517 C.3     1  UNL1        0.0460
     42 C          64.5043   91.5977   12.3671 C.ar    1  UNL1       -0.0205
     43 C          64.6470   92.0080   10.9314 C.ar    1  UNL1       -0.0042
     44 C          65.9341   92.6067   10.4468 C.ar    1  UNL1       -0.0003
     45 C          67.0786   92.7950   11.3979 C.ar    1  UNL1       -0.0000
     46 C          66.9360   92.3847   12.8336 C.ar    1  UNL1       -0.0003
     47 C          65.6488   91.7861   13.3182 C.ar    1  UNL1       -0.0042
     48 C          60.2737   87.3907    9.1986 C.3     1  UNL1        0.0459
     49 C          61.3265   86.3735    9.5255 C.ar    1  UNL1       -0.0205
     50 C          61.4777   85.8762   10.9326 C.ar    1  UNL1       -0.0042
     51 C          62.5305   84.8591   11.2596 C.ar    1  UNL1       -0.0003
     52 C          63.4321   84.3391   10.1795 C.ar    1  UNL1       -0.0000
     53 C          63.2810   84.8364    8.7723 C.ar    1  UNL1       -0.0003
     54 C          62.2282   85.8536    8.4454 C.ar    1  UNL1       -0.0042
@<TRIPOS>BOND
     1    24    25    1
     2    25    26    1
     3    25    19    1
     4    19    20   ar
     5    20    21   ar
     6    21    18    1
     7    18     6    1
     8     6     7    1
     9     6     8   am
    10     8     9    2
    11     8    10   am
    12    10    11    1
    13    11    12    1
    14    12    13    1
    15    12    14    1
    16    14    15    1
    17    15     2    1
    18     2     3    2
    19     2     4   am
    20     4     1    1
    21     1    27    1
    22    27    28    1
    23    29    28    1
    24    29    41    1
    25    41    42    1
    26    42    43   ar
    27    43    44   ar
    28    44    45   ar
    29    45    46   ar
    30    46    47   ar
    31    29    30    1
    32    30    31   am
    33    31    32    2
    34    31    34    1
    35    34    35    1
    36    35    36    1
    37    36    37   ar
    38    37    38   ar
    39    38    39   ar
    40    39    40   ar
    41     1    48    1
    42    48    49    1
    43    49    50   ar
    44    50    51   ar
    45    51    52   ar
    46    52    53   ar
    47    53    54   ar
    48    21    22   ar
    49    22    23   ar
    50    23    19   ar
    51    15    10    1
    52    47    42   ar
    53    40    36   ar
    54    54    49   ar
    55    13    16    1
    56    13    17    1
    57     4     5    1
    58    30    33    1
@<TRIPOS>MOLECULE
*****
 54 58 0 0 0
SMALL
GASTEIGER

@<TRIPOS>ATOM
      1 C          60.9704   88.9747    9.2035 C.3     1  UNL1        0.0760
      2 C          59.5698   89.2723    7.0356 C.2     1  UNL1        0.2406
      3 O          59.8245   87.8389    6.6742 O.2     1  UNL1       -0.2733
      4 N          60.1427   89.8402    8.3002 N.am    1  UNL1       -0.3043
      5 H          59.9755   90.7810    8.5374 H       1  UNL1        0.1494
      6 N          61.0754   92.1308    3.5430 N.am    1  UNL1       -0.2566
      7 C          62.5156   92.3088    3.1637 C.3     1  UNL1        0.1168
      8 C          60.7035   91.2036    4.6619 C.2     1  UNL1        0.3079
      9 O          61.7721   90.4543    5.4015 O.2     1  UNL1       -0.2523
     10 N          59.2633   91.0255    5.0412 N.am    1  UNL1       -0.2559
     11 C          58.0912   91.7039    4.3961 C.3     1  UNL1        0.1108
     12 C          56.8458   91.2355    5.0884 C.3     1  UNL1        0.0731
     13 N          55.4442   91.6604    4.7646 N.3     1  UNL1       -0.3208
     14 C          57.2480   90.2676    6.1615 C.3     1  UNL1        0.0465
     15 C          58.7421   90.1378    6.1323 C.3     1  UNL1        0.1544
     16 H          55.4606   92.3258    3.9917 H       1  UNL1        0.1189
     17 H          55.0246   92.1006    5.5835 H       1  UNL1        0.1189
     18 C          60.0068   92.8800    2.8034 C.3     1  UNL1        0.1413
     19 C          61.1546   93.5291   -0.8471 C.ar    1  UNL1        0.0875
     20 N          61.4629   93.2173    0.5873 N.ar    1  UNL1       -0.2453
     21 C          60.1660   93.1629    1.3389 C.ar    1  UNL1        0.0858
     22 C          59.0561   93.4410    0.3690 C.ar    1  UNL1        0.0530
     23 S          59.6671   93.6674   -0.9821 S.2     1  UNL1       -0.0705
     24 C          63.6179   93.7936   -1.6298 C.3     1  UNL1        0.0069
     25 C          62.1577   93.6767   -1.9526 C.3     1  UNL1        0.0465
     26 C          61.7007   93.7074   -3.3809 C.3     1  UNL1        0.0069
     27 C          62.2818   89.4779    9.7295 C.3     1  UNL1        0.0216
     28 C          62.6694   89.2141   11.1543 C.3     1  UNL1        0.0217
     29 C          62.6711   90.3352   12.1510 C.3     1  UNL1        0.0792
     30 N          62.1625   90.1021   13.5428 N.am    1  UNL1       -0.2720
     31 C          63.1055   89.6574   14.6212 C.2     1  UNL1        0.4019
     32 O          64.5571   89.4459   14.3079 O.2     1  UNL1       -0.2264
     33 H          61.2098   90.2410   13.7484 H       1  UNL1        0.1527
     34 O          62.5970   89.4244   16.0130 O.3     1  UNL1       -0.4291
     35 C          63.2651   88.4125   16.8960 C.3     1  UNL1        0.2447
     36 C          63.1673   86.9517   16.5700 C.ar    1  UNL1        0.0714
     37 C          62.1715   85.9857   17.1404 C.ar    1  UNL1        0.1053
     38 N          62.4369   84.6373   16.5393 N.ar    1  UNL1       -0.2350
     39 C          63.5968   84.7698   15.5974 C.ar    1  UNL1        0.1343
     40 S          64.0482   86.2002   15.6164 S.2     1  UNL1       -0.0652
     41 C          63.1813   91.6892   11.7559 C.3     1  UNL1        0.0460
     42 C          64.6563   91.9621   11.7485 C.ar    1  UNL1       -0.0205
     43 C          65.4247   91.9663   13.0367 C.ar    1  UNL1       -0.0042
     44 C          66.8996   92.2392   13.0293 C.ar    1  UNL1       -0.0003
     45 C          67.6061   92.5079   11.7337 C.ar    1  UNL1       -0.0000
     46 C          66.8378   92.5036   10.4455 C.ar    1  UNL1       -0.0003
     47 C          65.3628   92.2308   10.4529 C.ar    1  UNL1       -0.0042
     48 C          60.4864   87.6059    9.5808 C.3     1  UNL1        0.0459
     49 C          61.4606   86.4710    9.6948 C.ar    1  UNL1       -0.0205
     50 C          61.6516   85.7758   11.0102 C.ar    1  UNL1       -0.0042
     51 C          62.6258   84.6410   11.1242 C.ar    1  UNL1       -0.0003
     52 C          63.4091   84.2013    9.9229 C.ar    1  UNL1       -0.0000
     53 C          63.2181   84.8965    8.6075 C.ar    1  UNL1       -0.0003
     54 C          62.2439   86.0313    8.4934 C.ar    1  UNL1       -0.0042
@<TRIPOS>BOND
     1    24    25    1
     2    25    26    1
     3    25    19    1
     4    19    20   ar
     5    20    21   ar
     6    21    18    1
     7    18     6    1
     8     6     7    1
     9     6     8   am
    10     8     9    2
    11     8    10   am
    12    10    11    1
    13    11    12    1
    14    12    13    1
    15    12    14    1
    16    14    15    1
    17    15     2    1
    18     2     3    2
    19     2     4   am
    20     4     1    1
    21     1    27    1
    22    27    28    1
    23    29    28    1
    24    29    41    1
    25    41    42    1
    26    42    43   ar
    27    43    44   ar
    28    44    45   ar
    29    45    46   ar
    30    46    47   ar
    31    29    30    1
    32    30    31   am
    33    31    32    2
    34    31    34    1
    35    34    35    1
    36    35    36    1
    37    36    37   ar
    38    37    38   ar
    39    38    39   ar
    40    39    40   ar
    41     1    48    1
    42    48    49    1
    43    49    50   ar
    44    50    51   ar
    45    51    52   ar
    46    52    53   ar
    47    53    54   ar
    48    21    22   ar
    49    22    23   ar
    50    23    19   ar
    51    15    10    1
    52    47    42   ar
    53    40    36   ar
    54    54    49   ar
    55    13    16    1
    56    13    17    1
    57     4     5    1
    58    30    33    1
@<TRIPOS>MOLECULE
*****
 54 58 0 0 0
SMALL
GASTEIGER

@<TRIPOS>ATOM
      1 C          60.7785   89.0411    9.3038 C.3     1  UNL1        0.0760
      2 C          59.5447   89.3630    7.0401 C.2     1  UNL1        0.2406
      3 O          59.9781   87.9932    6.6091 O.2     1  UNL1       -0.2733
      4 N          59.9450   89.8870    8.3874 N.am    1  UNL1       -0.3043
      5 H          59.6605   90.7861    8.6703 H       1  UNL1        0.1494
      6 N          61.0296   92.1665    3.4944 N.am    1  UNL1       -0.2566
      7 C          62.4681   92.3442    3.1086 C.3     1  UNL1        0.1168
      8 C          60.6644   91.2574    4.6303 C.2     1  UNL1        0.3079
      9 O          61.7380   90.5260    5.3804 O.2     1  UNL1       -0.2523
     10 N          59.2259   91.0797    5.0160 N.am    1  UNL1       -0.2559
     11 C          58.0493   91.7415    4.3619 C.3     1  UNL1        0.1108
     12 C          56.8075   91.2797    5.0653 C.3     1  UNL1        0.0731
     13 N          55.4034   91.6927    4.7374 N.3     1  UNL1       -0.3208
     14 C          57.2166   90.3326    6.1542 C.3     1  UNL1        0.0465
     15 C          58.7112   90.2089    6.1237 C.3     1  UNL1        0.1544
     16 H          55.4151   92.3445    3.9530 H       1  UNL1        0.1189
     17 H          54.9837   92.1454    5.5494 H       1  UNL1        0.1189
     18 C          59.9560   92.8979    2.7443 C.3     1  UNL1        0.1413
     19 C          60.7620   93.9563   -0.9019 C.ar    1  UNL1        0.0875
     20 N          60.4498   92.9011    0.1173 N.ar    1  UNL1       -0.2453
     21 C          60.2776   93.5762    1.4457 C.ar    1  UNL1        0.0858
     22 C          60.4833   95.0487    1.2474 C.ar    1  UNL1        0.0530
     23 S          60.7827   95.2837   -0.2035 S.2     1  UNL1       -0.0705
     24 C          62.4058   93.4886   -2.8587 C.3     1  UNL1        0.0069
     25 C          61.0099   93.7249   -2.3631 C.3     1  UNL1        0.0465
     26 C          59.8620   93.7298   -3.3286 C.3     1  UNL1        0.0069
     27 C          62.0563   89.5847    9.8709 C.3     1  UNL1        0.0216
     28 C          62.0596   90.2377   11.2212 C.3     1  UNL1        0.0217
     29 C          63.2402   90.0721   12.1316 C.3     1  UNL1        0.0792
     30 N          63.9993   91.2773   12.6022 N.am    1  UNL1       -0.2720
     31 C          64.7443   92.1267   11.6155 C.2     1  UNL1        0.4019
     32 O          64.7303   91.7710   10.1584 O.2     1  UNL1       -0.2264
     33 H          64.0085   91.5107   13.5585 H       1  UNL1        0.1527
     34 O          65.5034   93.3319   12.0860 O.3     1  UNL1       -0.4291
     35 C          66.9049   93.1822   12.5993 C.3     1  UNL1        0.2447
     36 C          67.1469   92.9397   14.0597 C.ar    1  UNL1        0.0714
     37 C          66.1235   93.0406   15.1517 C.ar    1  UNL1        0.1053
     38 N          66.7989   92.7170   16.4513 N.ar    1  UNL1       -0.2350
     39 C          68.2397   92.4161   16.1626 C.ar    1  UNL1        0.1343
     40 S          68.4548   92.5538   14.6845 S.2     1  UNL1       -0.0652
     41 C          63.6617   88.7014   12.5714 C.3     1  UNL1        0.0460
     42 C          63.5806   88.3205   14.0200 C.ar    1  UNL1       -0.0205
     43 C          63.1714   89.3396   15.0417 C.ar    1  UNL1       -0.0042
     44 C          63.0903   88.9587   16.4903 C.ar    1  UNL1       -0.0003
     45 C          63.4183   87.5586   16.9171 C.ar    1  UNL1       -0.0000
     46 C          63.8274   86.5395   15.8954 C.ar    1  UNL1       -0.0003
     47 C          63.9086   86.9204   14.4469 C.ar    1  UNL1       -0.0042
     48 C          60.3342   87.6516    9.6530 C.3     1  UNL1        0.0459
     49 C          61.3503   86.5646    9.8421 C.ar    1  UNL1       -0.0205
     50 C          62.1336   86.0575    8.6677 C.ar    1  UNL1       -0.0042
     51 C          63.1498   84.9705    8.8568 C.ar    1  UNL1       -0.0003
     52 C          63.3826   84.3905   10.2204 C.ar    1  UNL1       -0.0000
     53 C          62.5994   84.8975   11.3949 C.ar    1  UNL1       -0.0003
     54 C          61.5832   85.9846   11.2058 C.ar    1  UNL1       -0.0042
@<TRIPOS>BOND
     1    24    25    1
     2    25    26    1
     3    25    19    1
     4    19    20   ar
     5    20    21   ar
     6    21    18    1
     7    18     6    1
     8     6     7    1
     9     6     8   am
    10     8     9    2
    11     8    10   am
    12    10    11    1
    13    11    12    1
    14    12    13    1
    15    12    14    1
    16    14    15    1
    17    15     2    1
    18     2     3    2
    19     2     4   am
    20     4     1    1
    21     1    27    1
    22    27    28    1
    23    29    28    1
    24    29    41    1
    25    41    42    1
    26    42    43   ar
    27    43    44   ar
    28    44    45   ar
    29    45    46   ar
    30    46    47   ar
    31    29    30    1
    32    30    31   am
    33    31    32    2
    34    31    34    1
    35    34    35    1
    36    35    36    1
    37    36    37   ar
    38    37    38   ar
    39    38    39   ar
    40    39    40   ar
    41     1    48    1
    42    48    49    1
    43    49    50   ar
    44    50    51   ar
    45    51    52   ar
    46    52    53   ar
    47    53    54   ar
    48    21    22   ar
    49    22    23   ar
    50    23    19   ar
    51    15    10    1
    52    47    42   ar
    53    40    36   ar
    54    54    49   ar
    55    13    16    1
    56    13    17    1
    57     4     5    1
    58    30    33    1
@<TRIPOS>MOLECULE
*****
 54 58 0 0 0
SMALL
GASTEIGER

@<TRIPOS>ATOM
      1 C          60.7947   89.0113    9.3625 C.3     1  UNL1        0.0760
      2 C          59.4609   89.2811    7.1493 C.2     1  UNL1        0.2406
      3 O          59.7522   87.8519    6.7995 O.2     1  UNL1       -0.2733
      4 N          59.9822   89.8609    8.4308 N.am    1  UNL1       -0.3043
      5 H          59.7910   90.7990    8.6604 H       1  UNL1        0.1494
      6 N          61.0232   92.0659    3.6221 N.am    1  UNL1       -0.2566
      7 C          62.4690   92.2326    3.2595 C.3     1  UNL1        0.1168
      8 C          60.6331   91.1620    4.7539 C.2     1  UNL1        0.3079
      9 O          61.6891   90.4248    5.5230 O.2     1  UNL1       -0.2523
     10 N          59.1873   90.9953    5.1165 N.am    1  UNL1       -0.2559
     11 C          58.0262   91.6637    4.4418 C.3     1  UNL1        0.1108
     12 C          56.7699   91.2124    5.1259 C.3     1  UNL1        0.0731
     13 N          55.3742   91.6344    4.7742 N.3     1  UNL1       -0.3208
     14 C          57.1545   90.2649    6.2233 C.3     1  UNL1        0.0465
     15 C          58.6484   90.1307    6.2176 C.3     1  UNL1        0.1544
     16 H          55.4033   92.2843    3.9886 H       1  UNL1        0.1189
     17 H          54.9445   92.0919    5.5782 H       1  UNL1        0.1189
     18 C          59.9671   92.8031    2.8530 C.3     1  UNL1        0.1413
     19 C          60.6550   93.8589   -0.8181 C.ar    1  UNL1        0.0875
     20 N          60.2117   92.8420    0.1915 N.ar    1  UNL1       -0.2453
     21 C          60.3117   93.4655    1.5521 C.ar    1  UNL1        0.0858
     22 C          60.8168   94.8678    1.3834 C.ar    1  UNL1        0.0530
     23 S          61.0290   95.1110   -0.0815 S.2     1  UNL1       -0.0705
     24 C          59.4488   93.4592   -3.0842 C.3     1  UNL1        0.0069
     25 C          60.7139   93.6590   -2.3036 C.3     1  UNL1        0.0465
     26 C          62.0381   93.6588   -3.0083 C.3     1  UNL1        0.0069
     27 C          62.0487   89.5596    9.9763 C.3     1  UNL1        0.0216
     28 C          62.0065   90.1794   11.3416 C.3     1  UNL1        0.0217
     29 C          63.1777   90.0345   12.2676 C.3     1  UNL1        0.0792
     30 N          63.8520   91.2550   12.8206 N.am    1  UNL1       -0.2720
     31 C          64.6769   92.1281   11.9222 C.2     1  UNL1        0.4019
     32 O          64.8275   91.7808   10.4708 O.2     1  UNL1       -0.2264
     33 H          63.7531   91.4829   13.7733 H       1  UNL1        0.1527
     34 O          65.3512   93.3486   12.4752 O.3     1  UNL1       -0.4291
     35 C          66.6419   93.8273   11.8795 C.3     1  UNL1        0.2447
     36 C          66.6271   94.6927   10.6544 C.ar    1  UNL1        0.0714
     37 C          67.3828   94.4359    9.3844 C.ar    1  UNL1        0.1053
     38 N          67.0768   95.5513    8.4292 N.ar    1  UNL1       -0.2350
     39 C          66.1318   96.4974    9.1089 C.ar    1  UNL1        0.1343
     40 S          65.8539   95.9667   10.4841 S.2     1  UNL1       -0.0652
     41 C          63.6746   88.6692   12.6405 C.3     1  UNL1        0.0460
     42 C          63.6104   88.2116   14.0676 C.ar    1  UNL1       -0.0205
     43 C          63.1945   89.1694   15.1444 C.ar    1  UNL1       -0.0042
     44 C          63.1303   88.7118   16.5714 C.ar    1  UNL1       -0.0003
     45 C          63.4819   87.2963   16.9216 C.ar    1  UNL1       -0.0000
     46 C          63.8978   86.3384   15.8448 C.ar    1  UNL1       -0.0003
     47 C          63.9620   86.7961   14.4178 C.ar    1  UNL1       -0.0042
     48 C          60.3532   87.6134    9.6804 C.3     1  UNL1        0.0459
     49 C          61.3710   86.5230    9.8380 C.ar    1  UNL1       -0.0205
     50 C          62.1199   86.0173    8.6408 C.ar    1  UNL1       -0.0042
     51 C          63.1378   84.9268    8.7985 C.ar    1  UNL1       -0.0003
     52 C          63.4068   84.3421   10.1533 C.ar    1  UNL1       -0.0000
     53 C          62.6579   84.8478   11.3506 C.ar    1  UNL1       -0.0003
     54 C          61.6400   85.9383   11.1930 C.ar    1  UNL1       -0.0042
@<TRIPOS>BOND
     1    24    25    1
     2    25    26    1
     3    25    19    1
     4    19    20   ar
     5    20    21   ar
     6    21    18    1
     7    18     6    1
     8     6     7    1
     9     6     8   am
    10     8     9    2
    11     8    10   am
    12    10    11    1
    13    11    12    1
    14    12    13    1
    15    12    14    1
    16    14    15    1
    17    15     2    1
    18     2     3    2
    19     2     4   am
    20     4     1    1
    21     1    27    1
    22    27    28    1
    23    29    28    1
    24    29    41    1
    25    41    42    1
    26    42    43   ar
    27    43    44   ar
    28    44    45   ar
    29    45    46   ar
    30    46    47   ar
    31    29    30    1
    32    30    31   am
    33    31    32    2
    34    31    34    1
    35    34    35    1
    36    35    36    1
    37    36    37   ar
    38    37    38   ar
    39    38    39   ar
    40    39    40   ar
    41     1    48    1
    42    48    49    1
    43    49    50   ar
    44    50    51   ar
    45    51    52   ar
    46    52    53   ar
    47    53    54   ar
    48    21    22   ar
    49    22    23   ar
    50    23    19   ar
    51    15    10    1
    52    47    42   ar
    53    40    36   ar
    54    54    49   ar
    55    13    16    1
    56    13    17    1
    57     4     5    1
    58    30    33    1
@<TRIPOS>MOLECULE
*****
 54 58 0 0 0
SMALL
GASTEIGER

@<TRIPOS>ATOM
      1 C          63.2534   86.0766   13.0852 C.3     1  UNL1        0.0760
      2 C          63.8444   88.1810   14.4897 C.2     1  UNL1        0.2406
      3 O          63.3734   87.4843   15.7317 O.2     1  UNL1       -0.2733
      4 N          63.7844   87.4771   13.1664 N.am    1  UNL1       -0.3043
      5 H          64.0935   87.9344   12.3511 H       1  UNL1        0.1494
      6 N          63.7743   91.5325   11.1135 N.am    1  UNL1       -0.2566
      7 C          63.1907   91.3366    9.7457 C.3     1  UNL1        0.1168
      8 C          63.7469   90.4103   12.1085 C.2     1  UNL1        0.3079
      9 O          63.1358   89.0921   11.7355 O.2     1  UNL1       -0.2523
     10 N          64.3305   90.6062   13.4762 N.am    1  UNL1       -0.2559
     11 C          64.9718   91.8613   13.9898 C.3     1  UNL1        0.1108
     12 C          65.4130   91.6122   15.4016 C.3     1  UNL1        0.0731
     13 N          66.1018   92.5989   16.2971 N.3     1  UNL1       -0.3208
     14 C          65.0443   90.2032   15.7607 C.3     1  UNL1        0.0465
     15 C          64.3753   89.5815   14.5708 C.3     1  UNL1        0.1544
     16 H          66.2292   93.4794   15.7983 H       1  UNL1        0.1189
     17 H          67.0117   92.2298   16.5733 H       1  UNL1        0.1189
     18 C          64.3854   92.8507   11.4864 C.3     1  UNL1        0.1413
     19 C          66.5214   95.0197    9.0786 C.ar    1  UNL1        0.0875
     20 N          65.2551   94.7711    9.8431 N.ar    1  UNL1       -0.2453
     21 C          65.4118   93.4812   10.5926 C.ar    1  UNL1        0.0858
     22 C          66.7749   92.9327   10.2912 C.ar    1  UNL1        0.0530
     23 S          67.4608   93.8835    9.3555 S.2     1  UNL1       -0.0705
     24 C          65.7302   96.7179    7.2786 C.3     1  UNL1        0.0069
     25 C          66.7997   96.1977    8.1927 C.3     1  UNL1        0.0465
     26 C          68.1474   96.8556    8.2208 C.3     1  UNL1        0.0069
     27 C          61.8956   85.8220   12.5010 C.3     1  UNL1        0.0216
     28 C          61.2820   86.8215   11.5659 C.3     1  UNL1        0.0217
     29 C          61.7587   86.9118   10.1465 C.3     1  UNL1        0.0792
     30 N          61.4194   88.1143    9.3165 N.am    1  UNL1       -0.2720
     31 C          60.0474   88.2557    8.7269 C.2     1  UNL1        0.4019
     32 O          59.0147   87.1948    8.9673 O.2     1  UNL1       -0.2264
     33 H          62.0972   88.8107    9.1587 H       1  UNL1        0.1527
     34 O          59.7081   89.4582    7.8969 O.3     1  UNL1       -0.4291
     35 C          59.3600   89.2948    6.4470 C.3     1  UNL1        0.2447
     36 C          59.1321   90.5043    5.5895 C.ar    1  UNL1        0.0714
     37 C          57.8141   91.1783    5.3480 C.ar    1  UNL1        0.1053
     38 N          58.0497   92.3426    4.4321 N.ar    1  UNL1       -0.2350
     39 C          59.5134   92.3882    4.1075 C.ar    1  UNL1        0.1343
     40 S          60.1824   91.2520    4.8228 S.2     1  UNL1       -0.0652
     41 C          62.5746   85.7997    9.5572 C.3     1  UNL1        0.0460
     42 C          62.2821   85.3083    8.1704 C.ar    1  UNL1       -0.0205
     43 C          63.4080   84.9129    7.2617 C.ar    1  UNL1       -0.0042
     44 C          63.1155   84.4216    5.8750 C.ar    1  UNL1       -0.0003
     45 C          61.6969   84.3256    5.3971 C.ar    1  UNL1       -0.0000
     46 C          60.5709   84.7210    6.3058 C.ar    1  UNL1       -0.0003
     47 C          60.8635   85.2123    7.6924 C.ar    1  UNL1       -0.0042
     48 C          64.0804   84.9306   13.5883 C.3     1  UNL1        0.0459
     49 C          63.6749   83.5202   13.2782 C.ar    1  UNL1       -0.0205
     50 C          63.7610   83.0071   11.8714 C.ar    1  UNL1       -0.0042
     51 C          63.3555   81.5966   11.5614 C.ar    1  UNL1       -0.0003
     52 C          62.8639   80.6992   12.6582 C.ar    1  UNL1       -0.0000
     53 C          62.7778   81.2123   14.0651 C.ar    1  UNL1       -0.0003
     54 C          63.1833   82.6228   14.3751 C.ar    1  UNL1       -0.0042
@<TRIPOS>BOND
     1    24    25    1
     2    25    26    1
     3    25    19    1
     4    19    20   ar
     5    20    21   ar
     6    21    18    1
     7    18     6    1
     8     6     7    1
     9     6     8   am
    10     8     9    2
    11     8    10   am
    12    10    11    1
    13    11    12    1
    14    12    13    1
    15    12    14    1
    16    14    15    1
    17    15     2    1
    18     2     3    2
    19     2     4   am
    20     4     1    1
    21     1    27    1
    22    27    28    1
    23    29    28    1
    24    29    41    1
    25    41    42    1
    26    42    43   ar
    27    43    44   ar
    28    44    45   ar
    29    45    46   ar
    30    46    47   ar
    31    29    30    1
    32    30    31   am
    33    31    32    2
    34    31    34    1
    35    34    35    1
    36    35    36    1
    37    36    37   ar
    38    37    38   ar
    39    38    39   ar
    40    39    40   ar
    41     1    48    1
    42    48    49    1
    43    49    50   ar
    44    50    51   ar
    45    51    52   ar
    46    52    53   ar
    47    53    54   ar
    48    21    22   ar
    49    22    23   ar
    50    23    19   ar
    51    15    10    1
    52    47    42   ar
    53    40    36   ar
    54    54    49   ar
    55    13    16    1
    56    13    17    1
    57     4     5    1
    58    30    33    1
@<TRIPOS>MOLECULE
*****
 54 58 0 0 0
SMALL
GASTEIGER

@<TRIPOS>ATOM
      1 C          62.4751   86.8525   11.0485 C.3     1  UNL1        0.0760
      2 C          62.3700   89.0501   12.4304 C.2     1  UNL1        0.2406
      3 O          60.9418   89.2433   12.0147 O.2     1  UNL1       -0.2733
      4 N          63.1367   87.8547   11.9473 N.am    1  UNL1       -0.3043
      5 H          64.0741   87.7279   12.2201 H       1  UNL1        0.1494
      6 N          65.0711   92.7618   11.1798 N.am    1  UNL1       -0.2566
      7 C          65.4032   93.1206    9.7618 C.3     1  UNL1        0.1168
      8 C          64.2091   91.5688   11.4695 C.2     1  UNL1        0.3079
      9 O          63.6792   90.7347   10.3410 O.2     1  UNL1       -0.2523
     10 N          63.8770   91.2100   12.8875 N.am    1  UNL1       -0.2559
     11 C          64.3319   91.9459   14.1130 C.3     1  UNL1        0.1108
     12 C          63.7678   91.2430   15.3120 C.3     1  UNL1        0.0731
     13 N          63.9715   91.6406   16.7438 N.3     1  UNL1       -0.3208
     14 C          62.9642   90.0727   14.8276 C.3     1  UNL1        0.0465
     15 C          63.0317   90.0523   13.3293 C.3     1  UNL1        0.1544
     16 H          64.5596   92.4730   16.7852 H       1  UNL1        0.1189
     17 H          64.4253   90.8783   17.2471 H       1  UNL1        0.1189
     18 C          65.6010   93.5959   12.3084 C.3     1  UNL1        0.1413
     19 C          68.4533   92.9144   14.8509 C.ar    1  UNL1        0.0875
     20 N          67.2639   93.7083   14.3980 N.ar    1  UNL1       -0.2453
     21 C          66.7725   93.1138   13.1116 C.ar    1  UNL1        0.0858
     22 C          67.6581   91.9526   12.7693 C.ar    1  UNL1        0.0530
     23 S          68.6970   91.8293   13.8443 S.2     1  UNL1       -0.0705
     24 C          69.6038   94.5653   16.4944 C.3     1  UNL1        0.0069
     25 C          69.2579   93.1622   16.0924 C.3     1  UNL1        0.0465
     26 C          69.7166   92.0068   16.9319 C.3     1  UNL1        0.0069
     27 C          61.7972   85.6504   11.6361 C.3     1  UNL1        0.0216
     28 C          62.0185   84.2950   11.0329 C.3     1  UNL1        0.0217
     29 C          63.3429   83.6094   11.1943 C.3     1  UNL1        0.0792
     30 N          64.3112   84.0843   12.2369 N.am    1  UNL1       -0.2720
     31 C          64.0824   83.7491   13.6811 C.2     1  UNL1        0.4019
     32 O          62.8856   82.9391   14.0825 O.2     1  UNL1       -0.2264
     33 H          65.0967   84.6159   11.9734 H       1  UNL1        0.1527
     34 O          65.0507   84.2240   14.7236 O.3     1  UNL1       -0.4291
     35 C          64.9551   85.6239   15.2538 C.3     1  UNL1        0.2447
     36 C          63.7715   86.0342   16.0790 C.ar    1  UNL1        0.0714
     37 C          62.6150   85.1577   16.4587 C.ar    1  UNL1        0.1053
     38 N          61.6654   85.9748   17.2837 N.ar    1  UNL1       -0.2350
     39 C          62.2351   87.3563   17.4138 C.ar    1  UNL1        0.1343
     40 S          63.5367   87.3930   16.6693 S.2     1  UNL1       -0.0652
     41 C          63.6990   82.4489   10.3132 C.3     1  UNL1        0.0460
     42 C          63.2717   81.0615   10.6909 C.ar    1  UNL1       -0.0205
     43 C          62.9589   80.7365   12.1215 C.ar    1  UNL1       -0.0042
     44 C          62.5316   79.3491   12.4991 C.ar    1  UNL1       -0.0003
     45 C          62.4172   78.2868   11.4463 C.ar    1  UNL1       -0.0000
     46 C          62.7301   78.6119   10.0158 C.ar    1  UNL1       -0.0003
     47 C          63.1573   79.9992    9.6381 C.ar    1  UNL1       -0.0042
     48 C          62.4913   87.0526    9.5619 C.3     1  UNL1        0.0459
     49 C          61.2252   87.4047    8.8387 C.ar    1  UNL1       -0.0205
     50 C          60.3646   86.3201    8.2616 C.ar    1  UNL1       -0.0042
     51 C          59.0985   86.6723    7.5384 C.ar    1  UNL1       -0.0003
     52 C          58.6930   88.1090    7.3923 C.ar    1  UNL1       -0.0000
     53 C          59.5536   89.1936    7.9694 C.ar    1  UNL1       -0.0003
     54 C          60.8197   88.8415    8.6926 C.ar    1  UNL1       -0.0042
@<TRIPOS>BOND
     1    24    25    1
     2    25    26    1
     3    25    19    1
     4    19    20   ar
     5    20    21   ar
     6    21    18    1
     7    18     6    1
     8     6     7    1
     9     6     8   am
    10     8     9    2
    11     8    10   am
    12    10    11    1
    13    11    12    1
    14    12    13    1
    15    12    14    1
    16    14    15    1
    17    15     2    1
    18     2     3    2
    19     2     4   am
    20     4     1    1
    21     1    27    1
    22    27    28    1
    23    29    28    1
    24    29    41    1
    25    41    42    1
    26    42    43   ar
    27    43    44   ar
    28    44    45   ar
    29    45    46   ar
    30    46    47   ar
    31    29    30    1
    32    30    31   am
    33    31    32    2
    34    31    34    1
    35    34    35    1
    36    35    36    1
    37    36    37   ar
    38    37    38   ar
    39    38    39   ar
    40    39    40   ar
    41     1    48    1
    42    48    49    1
    43    49    50   ar
    44    50    51   ar
    45    51    52   ar
    46    52    53   ar
    47    53    54   ar
    48    21    22   ar
    49    22    23   ar
    50    23    19   ar
    51    15    10    1
    52    47    42   ar
    53    40    36   ar
    54    54    49   ar
    55    13    16    1
    56    13    17    1
    57     4     5    1
    58    30    33    1
@<TRIPOS>MOLECULE
*****
 54 58 0 0 0
SMALL
GASTEIGER

@<TRIPOS>ATOM
      1 C          62.3961   86.8580   11.5365 C.3     1  UNL1        0.0760
      2 C          62.4108   89.1633   12.7348 C.2     1  UNL1        0.2406
      3 O          60.9652   89.3551   12.3836 O.2     1  UNL1       -0.2733
      4 N          63.1263   87.9147   12.3113 N.am    1  UNL1       -0.3043
      5 H          64.0751   87.7888   12.5419 H       1  UNL1        0.1494
      6 N          65.1016   92.6989   11.0335 N.am    1  UNL1       -0.2566
      7 C          65.3579   92.9337    9.5744 C.3     1  UNL1        0.1168
      8 C          64.2365   91.5533   11.4683 C.2     1  UNL1        0.3079
      9 O          63.6276   90.6424   10.4437 O.2     1  UNL1       -0.2523
     10 N          63.9802   91.3185   12.9274 N.am    1  UNL1       -0.2559
     11 C          64.5180   92.1411   14.0606 C.3     1  UNL1        0.1108
     12 C          64.0113   91.5509   15.3432 C.3     1  UNL1        0.0731
     13 N          64.3042   92.0588   16.7237 N.3     1  UNL1       -0.3208
     14 C          63.1602   90.3636   15.0026 C.3     1  UNL1        0.0465
     15 C          63.1410   90.2199   13.5096 C.3     1  UNL1        0.1544
     16 H          64.9085   92.8783   16.6634 H       1  UNL1        0.1189
     17 H          64.7724   91.3299   17.2620 H       1  UNL1        0.1189
     18 C          65.7105   93.6098   12.0581 C.3     1  UNL1        0.1413
     19 C          68.4002   92.9008   14.7651 C.ar    1  UNL1        0.0875
     20 N          67.2408   93.6996   14.2478 N.ar    1  UNL1       -0.2453
     21 C          66.8302   93.1189   12.9272 C.ar    1  UNL1        0.0858
     22 C          67.7359   91.9613   12.6281 C.ar    1  UNL1        0.0530
     23 S          68.7062   91.8263   13.7640 S.2     1  UNL1       -0.0705
     24 C          69.5276   94.5259   16.4496 C.3     1  UNL1        0.0069
     25 C          69.1262   93.1351   16.0566 C.3     1  UNL1        0.0465
     26 C          69.4508   91.9787   16.9551 C.3     1  UNL1        0.0069
     27 C          62.5160   85.4173   11.9364 C.3     1  UNL1        0.0216
     28 C          63.8695   84.8125   12.1645 C.3     1  UNL1        0.0217
     29 C          64.1335   84.0110   13.4047 C.3     1  UNL1        0.0792
     30 N          63.6509   82.5939   13.4987 N.am    1  UNL1       -0.2720
     31 C          62.2964   82.2994   14.0723 C.2     1  UNL1        0.4019
     32 O          61.4247   83.4220   14.5517 O.2     1  UNL1       -0.2264
     33 H          64.2230   81.8571   13.1841 H       1  UNL1        0.1527
     34 O          61.8138   80.8823   14.1663 O.3     1  UNL1       -0.4291
     35 C          62.5662   79.7861   13.4721 C.3     1  UNL1        0.2447
     36 C          62.7113   79.8049   11.9792 C.ar    1  UNL1        0.0714
     37 C          63.0282   81.0066   11.1392 C.ar    1  UNL1        0.1053
     38 N          63.0777   80.5697    9.7051 N.ar    1  UNL1       -0.2350
     39 C          62.7915   79.0980    9.6587 C.ar    1  UNL1        0.1343
     40 S          62.5651   78.6253   11.0642 S.2     1  UNL1       -0.0652
     41 C          64.8802   84.6266   14.5507 C.3     1  UNL1        0.0460
     42 C          64.1758   85.5609   15.4894 C.ar    1  UNL1       -0.0205
     43 C          64.3460   87.0437   15.3399 C.ar    1  UNL1       -0.0042
     44 C          63.6417   87.9779   16.2785 C.ar    1  UNL1       -0.0003
     45 C          62.7671   87.4293   17.3667 C.ar    1  UNL1       -0.0000
     46 C          62.5968   85.9465   17.5162 C.ar    1  UNL1       -0.0003
     47 C          63.3012   85.0124   16.5776 C.ar    1  UNL1       -0.0042
     48 C          61.5459   87.2422   10.3618 C.3     1  UNL1        0.0459
     49 C          61.5733   86.4119    9.1129 C.ar    1  UNL1       -0.0205
     50 C          62.8482   85.7514    8.6791 C.ar    1  UNL1       -0.0042
     51 C          62.8755   84.9211    7.4301 C.ar    1  UNL1       -0.0003
     52 C          61.6279   84.7514    6.6149 C.ar    1  UNL1       -0.0000
     53 C          60.3529   85.4119    7.0487 C.ar    1  UNL1       -0.0003
     54 C          60.3256   86.2422    8.2976 C.ar    1  UNL1       -0.0042
@<TRIPOS>BOND
     1    24    25    1
     2    25    26    1
     3    25    19    1
     4    19    20   ar
     5    20    21   ar
     6    21    18    1
     7    18     6    1
     8     6     7    1
     9     6     8   am
    10     8     9    2
    11     8    10   am
    12    10    11    1
    13    11    12    1
    14    12    13    1
    15    12    14    1
    16    14    15    1
    17    15     2    1
    18     2     3    2
    19     2     4   am
    20     4     1    1
    21     1    27    1
    22    27    28    1
    23    29    28    1
    24    29    41    1
    25    41    42    1
    26    42    43   ar
    27    43    44   ar
    28    44    45   ar
    29    45    46   ar
    30    46    47   ar
    31    29    30    1
    32    30    31   am
    33    31    32    2
    34    31    34    1
    35    34    35    1
    36    35    36    1
    37    36    37   ar
    38    37    38   ar
    39    38    39   ar
    40    39    40   ar
    41     1    48    1
    42    48    49    1
    43    49    50   ar
    44    50    51   ar
    45    51    52   ar
    46    52    53   ar
    47    53    54   ar
    48    21    22   ar
    49    22    23   ar
    50    23    19   ar
    51    15    10    1
    52    47    42   ar
    53    40    36   ar
    54    54    49   ar
    55    13    16    1
    56    13    17    1
    57     4     5    1
    58    30    33    1
@<TRIPOS>MOLECULE
*****
 54 58 0 0 0
SMALL
GASTEIGER

@<TRIPOS>ATOM
      1 C          62.2450   90.1171   10.1132 C.3     1  UNL1        0.0760
      2 C          62.1876   87.7117   11.0936 C.2     1  UNL1        0.2406
      3 O          60.9809   88.0725   11.9082 O.2     1  UNL1       -0.2733
      4 N          62.8197   88.7340   10.1961 N.am    1  UNL1       -0.3043
      5 H          63.6117   88.4972    9.6614 H       1  UNL1        0.1494
      6 N          64.2753   85.6341   14.8300 N.am    1  UNL1       -0.2566
      7 C          64.4657   86.2956   16.1626 C.3     1  UNL1        0.1168
      8 C          63.6033   86.3764   13.7132 C.2     1  UNL1        0.3079
      9 O          63.1216   87.7806   13.9291 O.2     1  UNL1       -0.2523
     10 N          63.4130   85.7149   12.3805 N.am    1  UNL1       -0.2559
     11 C          63.8400   84.3234   12.0179 C.3     1  UNL1        0.1108
     12 C          63.4532   84.0772   10.5897 C.3     1  UNL1        0.0731
     13 N          63.6907   82.8135    9.8173 N.3     1  UNL1       -0.3208
     14 C          62.7871   85.3165   10.0696 C.3     1  UNL1        0.0465
     15 C          62.7622   86.3287   11.1764 C.3     1  UNL1        0.1544
     16 H          64.1617   82.1336   10.4142 H       1  UNL1        0.1189
     17 H          64.2746   83.0157    9.0058 H       1  UNL1        0.1189
     18 C          64.7570   84.2300   14.6140 C.3     1  UNL1        0.1413
     19 C          62.7528   81.0970   13.5038 C.ar    1  UNL1        0.0875
     20 N          63.9996   81.9307   13.4808 N.ar    1  UNL1       -0.2453
     21 C          63.7708   83.1308   14.3509 C.ar    1  UNL1        0.0858
     22 C          62.3827   83.0389   14.9118 C.ar    1  UNL1        0.0530
     23 S          61.7535   81.7819   14.3883 S.2     1  UNL1       -0.0705
     24 C          62.1168   78.5780   13.5215 C.3     1  UNL1        0.0069
     25 C          62.5423   79.8051   12.7711 C.3     1  UNL1        0.0465
     26 C          62.7573   79.7404   11.2880 C.3     1  UNL1        0.0069
     27 C          63.1254   91.3100   10.3412 C.3     1  UNL1        0.0216
     28 C          64.0740   91.3309   11.5029 C.3     1  UNL1        0.0217
     29 C          65.2333   92.2828   11.5076 C.3     1  UNL1        0.0792
     30 N          65.6777   92.9171   12.7922 N.am    1  UNL1       -0.2720
     31 C          67.1029   92.7840   13.2406 C.2     1  UNL1        0.4019
     32 O          68.0837   92.0166   12.4046 O.2     1  UNL1       -0.2264
     33 H          65.0339   93.4208   13.3409 H       1  UNL1        0.1527
     34 O          67.5473   93.4183   14.5252 O.3     1  UNL1       -0.4291
     35 C          67.0937   92.8515   15.8378 C.3     1  UNL1        0.2447
     36 C          65.7537   92.1859   15.9444 C.ar    1  UNL1        0.0714
     37 C          64.6440   92.5818   16.8727 C.ar    1  UNL1        0.1053
     38 N          63.4926   91.6481   16.6435 N.ar    1  UNL1       -0.2350
     39 C          63.8907   90.6751   15.5735 C.ar    1  UNL1        0.1343
     40 S          65.2882   91.0075   15.1415 S.2     1  UNL1       -0.0652
     41 C          65.9481   92.6004   10.2277 C.3     1  UNL1        0.0460
     42 C          66.3229   94.0176    9.9097 C.ar    1  UNL1       -0.0205
     43 C          65.5789   95.1518   10.5499 C.ar    1  UNL1       -0.0042
     44 C          65.9537   96.5690   10.2318 C.ar    1  UNL1       -0.0003
     45 C          67.0725   96.8519    9.2735 C.ar    1  UNL1       -0.0000
     46 C          67.8165   95.7176    8.6334 C.ar    1  UNL1       -0.0003
     47 C          67.4417   94.3005    8.9514 C.ar    1  UNL1       -0.0042
     48 C          60.7899   90.3073    9.8025 C.3     1  UNL1        0.0459
     49 C          60.1072   89.3991    8.8231 C.ar    1  UNL1       -0.0205
     50 C          59.7279   88.0062    9.2305 C.ar    1  UNL1       -0.0042
     51 C          59.0452   87.0980    8.2512 C.ar    1  UNL1       -0.0003
     52 C          58.7419   87.5827    6.8644 C.ar    1  UNL1       -0.0000
     53 C          59.1212   88.9756    6.4570 C.ar    1  UNL1       -0.0003
     54 C          59.8039   89.8838    7.4363 C.ar    1  UNL1       -0.0042
@<TRIPOS>BOND
     1    24    25    1
     2    25    26    1
     3    25    19    1
     4    19    20   ar
     5    20    21   ar
     6    21    18    1
     7    18     6    1
     8     6     7    1
     9     6     8   am
    10     8     9    2
    11     8    10   am
    12    10    11    1
    13    11    12    1
    14    12    13    1
    15    12    14    1
    16    14    15    1
    17    15     2    1
    18     2     3    2
    19     2     4   am
    20     4     1    1
    21     1    27    1
    22    27    28    1
    23    29    28    1
    24    29    41    1
    25    41    42    1
    26    42    43   ar
    27    43    44   ar
    28    44    45   ar
    29    45    46   ar
    30    46    47   ar
    31    29    30    1
    32    30    31   am
    33    31    32    2
    34    31    34    1
    35    34    35    1
    36    35    36    1
    37    36    37   ar
    38    37    38   ar
    39    38    39   ar
    40    39    40   ar
    41     1    48    1
    42    48    49    1
    43    49    50   ar
    44    50    51   ar
    45    51    52   ar
    46    52    53   ar
    47    53    54   ar
    48    21    22   ar
    49    22    23   ar
    50    23    19   ar
    51    15    10    1
    52    47    42   ar
    53    40    36   ar
    54    54    49   ar
    55    13    16    1
    56    13    17    1
    57     4     5    1
    58    30    33    1
