@<TRIPOS>MOLECULE
*****
 27 29 0 0 0
SMALL
GASTEIGER

@<TRIPOS>ATOM
      1 O          64.5939   82.9178   15.2196 O.3     1  UNL1       -0.3755
      2 C          64.1363   84.0685   14.3731 C.3     1  UNL1        0.1932
      3 H          64.5060   83.1510   16.1571 H       1  UNL1        0.2110
      4 C          63.8202   83.1200   13.2548 C.ar    1  UNL1        0.0368
      5 C          64.5880   83.1949   11.9684 C.ar    1  UNL1        0.0028
      6 C          64.2719   82.2465   10.8501 C.ar    1  UNL1        0.0295
      7 C          63.1882   81.2232   11.0183 C.ar    1  UNL1        0.1424
      8 F          62.8721   80.2747    9.8999 F       1  UNL1       -0.2041
      9 C          62.4204   81.1483   12.3047 C.ar    1  UNL1        0.0590
     10 C          62.7364   82.0967   13.4230 C.ar    1  UNL1        0.1408
     11 F          61.9687   82.0219   14.7095 F       1  UNL1       -0.2043
     12 C          63.6787   85.2191   13.5267 C.3     1  UNL1        0.3254
     13 F          64.9836   85.9174   13.7704 F       1  UNL1       -0.1949
     14 F          62.3017   84.8200   13.0854 F       1  UNL1       -0.1949
     15 C          63.2210   86.3698   12.6801 C.ar    1  UNL1        0.1218
     16 C          62.4071   86.1158   11.4460 C.ar    1  UNL1        0.0211
     17 C          61.9494   87.2664   10.5995 C.ar    1  UNL1        0.0144
     18 C          62.3056   88.6710   10.9871 C.ar    1  UNL1        0.0768
     19 CL         61.8479   89.8216   10.1406 Cl      1  UNL1       -0.0806
     20 C          63.1195   88.9250   12.2212 C.ar    1  UNL1        0.1100
     21 N          63.5772   87.7743   13.0677 N.ar    1  UNL1       -0.2418
     22 C          64.4524   85.0169   15.4914 C.3     1  UNL1        0.1679
     23 N          63.3504   85.7895   16.1536 N.ar    1  UNL1       -0.2078
     24 C          63.4181   87.2226   16.5914 C.ar    1  UNL1        0.2216
     25 N          62.0967   87.5836   17.2027 N.ar    1  UNL1       -0.1048
     26 N          61.2123   86.3735   17.1427 N.ar    1  UNL1       -0.0226
     27 N          61.9871   85.2648   16.4944 N.ar    1  UNL1       -0.0428
@<TRIPOS>BOND
     1     1     2    1
     2     2    22    1
     3    22    23    1
     4    23    24   ar
     5    24    25   ar
     6    25    26   ar
     7    26    27   ar
     8     2     4    1
     9     4     5   ar
    10     5     6   ar
    11     6     7   ar
    12     7     8    1
    13     7     9   ar
    14     9    10   ar
    15    10    11    1
    16     2    12    1
    17    12    13    1
    18    12    14    1
    19    12    15    1
    20    15    16   ar
    21    16    17   ar
    22    17    18   ar
    23    18    19    1
    24    18    20   ar
    25    20    21   ar
    26    27    23   ar
    27    10     4   ar
    28    21    15   ar
    29     1     3    1
@<TRIPOS>MOLECULE
*****
 27 29 0 0 0
SMALL
GASTEIGER

@<TRIPOS>ATOM
      1 O          64.6526   83.6079   15.6726 O.3     1  UNL1       -0.3755
      2 C          64.0117   84.1195   14.4166 C.3     1  UNL1        0.1932
      3 H          65.2391   82.8659   15.4573 H       1  UNL1        0.2110
      4 C          63.8305   85.4639   15.0567 C.ar    1  UNL1        0.0368
      5 C          64.4848   86.6738   14.4582 C.ar    1  UNL1        0.0028
      6 C          64.3035   88.0182   15.0982 C.ar    1  UNL1        0.0295
      7 C          63.4680   88.1528   16.3367 C.ar    1  UNL1        0.1424
      8 F          63.2868   89.4972   16.9767 F       1  UNL1       -0.2041
      9 C          62.8138   86.9429   16.9351 C.ar    1  UNL1        0.0590
     10 C          62.9950   85.5985   16.2951 C.ar    1  UNL1        0.1408
     11 F          62.3407   84.3886   16.8935 F       1  UNL1       -0.2043
     12 C          63.3709   84.6310   13.1606 C.3     1  UNL1        0.3254
     13 F          64.6166   84.3038   12.3917 F       1  UNL1       -0.1949
     14 F          62.0071   85.0722   13.6026 F       1  UNL1       -0.1949
     15 C          62.7300   85.1425   11.9045 C.ar    1  UNL1        0.1218
     16 C          63.1899   84.6382   10.5688 C.ar    1  UNL1        0.0211
     17 C          62.5491   85.1497    9.3127 C.ar    1  UNL1        0.0144
     18 C          61.4482   86.1656    9.3924 C.ar    1  UNL1        0.0768
     19 CL         60.8074   86.6771    8.1364 Cl      1  UNL1       -0.0806
     20 C          60.9883   86.6699   10.7281 C.ar    1  UNL1        0.1100
     21 N          61.6292   86.1583   11.9842 N.ar    1  UNL1       -0.2418
     22 C          64.1930   82.7750   13.7766 C.3     1  UNL1        0.1679
     23 N          63.0685   81.7824   13.7856 N.ar    1  UNL1       -0.2078
     24 C          63.0713   80.4409   13.1144 C.ar    1  UNL1        0.2216
     25 N          61.7483   79.7863   13.3813 N.ar    1  UNL1       -0.1048
     26 N          60.9279   80.7232   14.2174 N.ar    1  UNL1       -0.0226
     27 N          61.7438   81.9568   14.4672 N.ar    1  UNL1       -0.0428
@<TRIPOS>BOND
     1     1     2    1
     2     2    22    1
     3    22    23    1
     4    23    24   ar
     5    24    25   ar
     6    25    26   ar
     7    26    27   ar
     8     2     4    1
     9     4     5   ar
    10     5     6   ar
    11     6     7   ar
    12     7     8    1
    13     7     9   ar
    14     9    10   ar
    15    10    11    1
    16     2    12    1
    17    12    13    1
    18    12    14    1
    19    12    15    1
    20    15    16   ar
    21    16    17   ar
    22    17    18   ar
    23    18    19    1
    24    18    20   ar
    25    20    21   ar
    26    27    23   ar
    27    10     4   ar
    28    21    15   ar
    29     1     3    1
@<TRIPOS>MOLECULE
*****
 27 29 0 0 0
SMALL
GASTEIGER

@<TRIPOS>ATOM
      1 O          63.7727   91.8757   13.4399 O.3     1  UNL1       -0.3755
      2 C          63.8045   90.3818   13.5718 C.3     1  UNL1        0.1932
      3 H          64.6108   92.2462   13.7579 H       1  UNL1        0.2110
      4 C          62.7935   90.2631   12.4700 C.ar    1  UNL1        0.0368
      5 C          61.4315   89.7049   12.7589 C.ar    1  UNL1        0.0028
      6 C          60.4205   89.5861   11.6572 C.ar    1  UNL1        0.0295
      7 C          60.7715   90.0255   10.2666 C.ar    1  UNL1        0.1424
      8 F          59.7606   89.9067    9.1648 F       1  UNL1       -0.2041
      9 C          62.1335   90.5836    9.9778 C.ar    1  UNL1        0.0590
     10 C          63.1445   90.7024   11.0795 C.ar    1  UNL1        0.1408
     11 F          64.5065   91.2606   10.7906 F       1  UNL1       -0.2043
     12 C          63.8362   88.8880   13.7038 C.3     1  UNL1        0.3254
     13 F          63.8875   89.0210   15.1970 F       1  UNL1       -0.1949
     14 F          63.7942   88.3975   12.2868 F       1  UNL1       -0.1949
     15 C          63.8680   87.3941   13.8357 C.ar    1  UNL1        0.1218
     16 C          64.5826   86.7583   14.9912 C.ar    1  UNL1        0.0211
     17 C          64.6144   85.2645   15.1231 C.ar    1  UNL1        0.0144
     18 C          63.9316   84.4064   14.0996 C.ar    1  UNL1        0.0768
     19 CL         63.9634   82.9126   14.2316 Cl      1  UNL1       -0.0806
     20 C          63.2169   85.0422   12.9442 C.ar    1  UNL1        0.1100
     21 N          63.1852   86.5361   12.8123 N.ar    1  UNL1       -0.2418
     22 C          64.8154   90.5007   14.6736 C.3     1  UNL1        0.1679
     23 N          65.8677   91.5680   14.6140 N.ar    1  UNL1       -0.2078
     24 C          66.2377   92.5043   15.7259 C.ar    1  UNL1        0.2216
     25 N          67.3334   93.4014   15.2312 N.ar    1  UNL1       -0.1048
     26 N          67.6406   93.0194   13.8135 N.ar    1  UNL1       -0.0226
     27 N          66.7347   91.8863   13.4321 N.ar    1  UNL1       -0.0428
@<TRIPOS>BOND
     1     1     2    1
     2     2    22    1
     3    22    23    1
     4    23    24   ar
     5    24    25   ar
     6    25    26   ar
     7    26    27   ar
     8     2     4    1
     9     4     5   ar
    10     5     6   ar
    11     6     7   ar
    12     7     8    1
    13     7     9   ar
    14     9    10   ar
    15    10    11    1
    16     2    12    1
    17    12    13    1
    18    12    14    1
    19    12    15    1
    20    15    16   ar
    21    16    17   ar
    22    17    18   ar
    23    18    19    1
    24    18    20   ar
    25    20    21   ar
    26    27    23   ar
    27    10     4   ar
    28    21    15   ar
    29     1     3    1
@<TRIPOS>MOLECULE
*****
 27 29 0 0 0
SMALL
GASTEIGER

@<TRIPOS>ATOM
      1 O          61.0872   89.0559    9.4098 O.3     1  UNL1       -0.3755
      2 C          61.6077   88.0050   10.3449 C.3     1  UNL1        0.1932
      3 H          61.3638   89.9318    9.7215 H       1  UNL1        0.2110
      4 C          61.5633   86.9961    9.2357 C.ar    1  UNL1        0.0368
      5 C          62.8140   86.2765    8.8259 C.ar    1  UNL1        0.0028
      6 C          62.7697   85.2676    7.7168 C.ar    1  UNL1        0.0295
      7 C          61.4747   84.9784    7.0174 C.ar    1  UNL1        0.1424
      8 F          61.4303   83.9696    5.9082 F       1  UNL1       -0.2041
      9 C          60.2240   85.6980    7.4271 C.ar    1  UNL1        0.0590
     10 C          60.2683   86.7069    8.5363 C.ar    1  UNL1        0.1408
     11 F          59.0176   87.4265    8.9460 F       1  UNL1       -0.2043
     12 C          62.1283   86.9540   11.2800 C.3     1  UNL1        0.3254
     13 F          60.8822   86.1468   11.0665 F       1  UNL1       -0.1949
     14 F          63.4634   87.4830   11.7135 F       1  UNL1       -0.1949
     15 C          62.6489   85.9030   12.2152 C.ar    1  UNL1        0.1218
     16 C          62.4047   84.4521   11.9235 C.ar    1  UNL1        0.0211
     17 C          62.9252   83.4011   12.8586 C.ar    1  UNL1        0.0144
     18 C          63.6900   83.8011   14.0855 C.ar    1  UNL1        0.0768
     19 CL         64.2106   82.7502   15.0206 Cl      1  UNL1       -0.0806
     20 C          63.9343   85.2521   14.3772 C.ar    1  UNL1        0.1100
     21 N          63.4136   86.3030   13.4420 N.ar    1  UNL1       -0.2418
     22 C          61.6521   89.0138   11.4540 C.3     1  UNL1        0.1679
     23 N          62.6910   90.0957   11.4427 N.ar    1  UNL1       -0.2078
     24 C          63.4685   90.5839   12.6289 C.ar    1  UNL1        0.2216
     25 N          64.3929   91.6693   12.1625 N.ar    1  UNL1       -0.1048
     26 N          64.1867   91.8519   10.6881 N.ar    1  UNL1       -0.0226
     27 N          63.1348   90.8794   10.2432 N.ar    1  UNL1       -0.0428
@<TRIPOS>BOND
     1     1     2    1
     2     2    22    1
     3    22    23    1
     4    23    24   ar
     5    24    25   ar
     6    25    26   ar
     7    26    27   ar
     8     2     4    1
     9     4     5   ar
    10     5     6   ar
    11     6     7   ar
    12     7     8    1
    13     7     9   ar
    14     9    10   ar
    15    10    11    1
    16     2    12    1
    17    12    13    1
    18    12    14    1
    19    12    15    1
    20    15    16   ar
    21    16    17   ar
    22    17    18   ar
    23    18    19    1
    24    18    20   ar
    25    20    21   ar
    26    27    23   ar
    27    10     4   ar
    28    21    15   ar
    29     1     3    1
@<TRIPOS>MOLECULE
*****
 27 29 0 0 0
SMALL
GASTEIGER

@<TRIPOS>ATOM
      1 O          64.7524   83.8521   15.2078 O.3     1  UNL1       -0.3755
      2 C          64.0317   84.3700   13.9986 C.3     1  UNL1        0.1932
      3 H          64.9785   84.5931   15.7915 H       1  UNL1        0.2110
      4 C          63.3697   83.0357   13.8217 C.ar    1  UNL1        0.0368
      5 C          63.8848   82.0734   12.7927 C.ar    1  UNL1        0.0028
      6 C          63.2228   80.7391   12.6158 C.ar    1  UNL1        0.0295
      7 C          62.0457   80.3670   13.4677 C.ar    1  UNL1        0.1424
      8 F          61.3837   79.0326   13.2908 F       1  UNL1       -0.2041
      9 C          61.5306   81.3293   14.4967 C.ar    1  UNL1        0.0590
     10 C          62.1926   82.6636   14.6736 C.ar    1  UNL1        0.1408
     11 F          61.6774   83.6258   15.7026 F       1  UNL1       -0.2043
     12 C          63.3110   84.8880   12.7894 C.3     1  UNL1        0.3254
     13 F          64.5203   84.6062   11.9479 F       1  UNL1       -0.1949
     14 F          61.9631   85.2868   13.3133 F       1  UNL1       -0.1949
     15 C          62.5902   85.4060   11.5801 C.ar    1  UNL1        0.1218
     16 C          62.9744   84.9219   10.2134 C.ar    1  UNL1        0.0211
     17 C          62.2537   85.4398    9.0042 C.ar    1  UNL1        0.0144
     18 C          61.1487   86.4419    9.1617 C.ar    1  UNL1        0.0768
     19 CL         60.4280   86.9599    7.9524 Cl      1  UNL1       -0.0806
     20 C          60.7644   86.9261   10.5284 C.ar    1  UNL1        0.1100
     21 N          61.4852   86.4081   11.7376 N.ar    1  UNL1       -0.2418
     22 C          64.6937   85.7043   14.1755 C.3     1  UNL1        0.1679
     23 N          64.0702   86.7389   15.0649 N.ar    1  UNL1       -0.2078
     24 C          63.4172   86.4838   16.3909 C.ar    1  UNL1        0.2216
     25 N          62.9336   87.7974   16.9299 N.ar    1  UNL1       -0.1048
     26 N          63.2878   88.8645   15.9369 N.ar    1  UNL1       -0.0226
     27 N          63.9902   88.2102   14.7843 N.ar    1  UNL1       -0.0428
@<TRIPOS>BOND
     1     1     2    1
     2     2    22    1
     3    22    23    1
     4    23    24   ar
     5    24    25   ar
     6    25    26   ar
     7    26    27   ar
     8     2     4    1
     9     4     5   ar
    10     5     6   ar
    11     6     7   ar
    12     7     8    1
    13     7     9   ar
    14     9    10   ar
    15    10    11    1
    16     2    12    1
    17    12    13    1
    18    12    14    1
    19    12    15    1
    20    15    16   ar
    21    16    17   ar
    22    17    18   ar
    23    18    19    1
    24    18    20   ar
    25    20    21   ar
    26    27    23   ar
    27    10     4   ar
    28    21    15   ar
    29     1     3    1
@<TRIPOS>MOLECULE
*****
 27 29 0 0 0
SMALL
GASTEIGER

@<TRIPOS>ATOM
      1 O          61.2475   88.6121    9.1912 O.3     1  UNL1       -0.3755
      2 C          61.6553   87.4866   10.0950 C.3     1  UNL1        0.1932
      3 H          61.5387   89.4550    9.5729 H       1  UNL1        0.2110
      4 C          61.6462   86.5455    8.9269 C.ar    1  UNL1        0.0368
      5 C          62.9213   85.8956    8.4775 C.ar    1  UNL1        0.0028
      6 C          62.9123   84.9545    7.3095 C.ar    1  UNL1        0.0295
      7 C          61.6282   84.6633    6.5910 C.ar    1  UNL1        0.1424
      8 F          61.6192   83.7222    5.4229 F       1  UNL1       -0.2041
      9 C          60.3532   85.3132    7.0404 C.ar    1  UNL1        0.0590
     10 C          60.3622   86.2543    8.2084 C.ar    1  UNL1        0.1408
     11 F          59.0871   86.9041    8.6578 F       1  UNL1       -0.2043
     12 C          62.0630   86.3611   10.9988 C.3     1  UNL1        0.3254
     13 F          63.0917   87.2464   11.6373 F       1  UNL1       -0.1949
     14 F          61.1634   85.2296   10.5979 F       1  UNL1       -0.1949
     15 C          62.4707   85.2354   11.9026 C.ar    1  UNL1        0.1218
     16 C          62.5462   83.8354   11.3695 C.ar    1  UNL1        0.0211
     17 C          62.9539   82.7098   12.2733 C.ar    1  UNL1        0.0144
     18 C          63.2861   82.9842   13.7101 C.ar    1  UNL1        0.0768
     19 CL         63.6938   81.8586   14.6138 Cl      1  UNL1       -0.0806
     20 C          63.2105   84.3842   14.2431 C.ar    1  UNL1        0.1100
     21 N          62.8028   85.5099   13.3393 N.ar    1  UNL1       -0.2418
     22 C          61.6643   88.4277   11.2629 C.3     1  UNL1        0.1679
     23 N          60.4876   89.3236   11.5134 N.ar    1  UNL1       -0.2078
     24 C          59.2685   88.9747   12.3146 C.ar    1  UNL1        0.2216
     25 N          58.3509   90.1612   12.3030 N.ar    1  UNL1       -0.1048
     26 N          59.0028   91.2435   11.4944 N.ar    1  UNL1       -0.0226
     27 N          60.3234   90.7258   11.0064 N.ar    1  UNL1       -0.0428
@<TRIPOS>BOND
     1     1     2    1
     2     2    22    1
     3    22    23    1
     4    23    24   ar
     5    24    25   ar
     6    25    26   ar
     7    26    27   ar
     8     2     4    1
     9     4     5   ar
    10     5     6   ar
    11     6     7   ar
    12     7     8    1
    13     7     9   ar
    14     9    10   ar
    15    10    11    1
    16     2    12    1
    17    12    13    1
    18    12    14    1
    19    12    15    1
    20    15    16   ar
    21    16    17   ar
    22    17    18   ar
    23    18    19    1
    24    18    20   ar
    25    20    21   ar
    26    27    23   ar
    27    10     4   ar
    28    21    15   ar
    29     1     3    1
@<TRIPOS>MOLECULE
*****
 27 29 0 0 0
SMALL
GASTEIGER

@<TRIPOS>ATOM
      1 O          64.5873   83.7351   15.2372 O.3     1  UNL1       -0.3755
      2 C          63.9106   84.4884   14.1307 C.3     1  UNL1        0.1932
      3 H          64.5959   84.2788   16.0404 H       1  UNL1        0.2110
      4 C          63.5535   83.1918   13.4664 C.ar    1  UNL1        0.0368
      5 C          62.5802   82.2568   14.1210 C.ar    1  UNL1        0.0028
      6 C          62.2231   80.9602   13.4567 C.ar    1  UNL1        0.0295
      7 C          62.8392   80.5986   12.1379 C.ar    1  UNL1        0.1424
      8 F          62.4821   79.3019   11.4735 F       1  UNL1       -0.2041
      9 C          63.8125   81.5336   11.4832 C.ar    1  UNL1        0.0590
     10 C          64.1696   82.8302   12.1475 C.ar    1  UNL1        0.1408
     11 F          65.1429   83.7651   11.4928 F       1  UNL1       -0.2043
     12 C          63.2338   85.2418   13.0242 C.3     1  UNL1        0.3254
     13 F          64.2257   86.3566   13.1766 F       1  UNL1       -0.1949
     14 F          62.1076   84.3423   12.6085 F       1  UNL1       -0.1949
     15 C          62.5570   85.9951   11.9176 C.ar    1  UNL1        0.1218
     16 C          62.6954   87.4863   11.8315 C.ar    1  UNL1        0.0211
     17 C          62.0186   88.2396   10.7250 C.ar    1  UNL1        0.0144
     18 C          61.2035   87.5019    9.7045 C.ar    1  UNL1        0.0768
     19 CL         60.5268   88.2552    8.5980 Cl      1  UNL1       -0.0806
     20 C          61.0652   86.0107    9.7906 C.ar    1  UNL1        0.1100
     21 N          61.7420   85.2574   10.8972 N.ar    1  UNL1       -0.2418
     22 C          64.2677   85.7850   14.7950 C.3     1  UNL1        0.1679
     23 N          63.5156   86.2363   16.0119 N.ar    1  UNL1       -0.2078
     24 C          63.5037   87.6262   16.5759 C.ar    1  UNL1        0.2216
     25 N          62.6242   87.6258   17.7910 N.ar    1  UNL1       -0.1048
     26 N          62.0925   86.2358   17.9780 N.ar    1  UNL1       -0.0226
     27 N          62.6435   85.3770   16.8784 N.ar    1  UNL1       -0.0428
@<TRIPOS>BOND
     1     1     2    1
     2     2    22    1
     3    22    23    1
     4    23    24   ar
     5    24    25   ar
     6    25    26   ar
     7    26    27   ar
     8     2     4    1
     9     4     5   ar
    10     5     6   ar
    11     6     7   ar
    12     7     8    1
    13     7     9   ar
    14     9    10   ar
    15    10    11    1
    16     2    12    1
    17    12    13    1
    18    12    14    1
    19    12    15    1
    20    15    16   ar
    21    16    17   ar
    22    17    18   ar
    23    18    19    1
    24    18    20   ar
    25    20    21   ar
    26    27    23   ar
    27    10     4   ar
    28    21    15   ar
    29     1     3    1
@<TRIPOS>MOLECULE
*****
 27 29 0 0 0
SMALL
GASTEIGER

@<TRIPOS>ATOM
      1 O          62.7755   89.1253   11.3875 O.3     1  UNL1       -0.3755
      2 C          62.7142   87.6890   11.8156 C.3     1  UNL1        0.1932
      3 H          63.5934   89.5271   11.7200 H       1  UNL1        0.2110
      4 C          61.8215   87.3799   10.6504 C.ar    1  UNL1        0.0368
      5 C          62.3492   86.5882    9.4907 C.ar    1  UNL1        0.0028
      6 C          61.4567   86.2791    8.3255 C.ar    1  UNL1        0.0295
      7 C          60.0364   86.7615    8.3200 C.ar    1  UNL1        0.1424
      8 F          59.1438   86.4524    7.1548 F       1  UNL1       -0.2041
      9 C          59.5087   87.5532    9.4797 C.ar    1  UNL1        0.0590
     10 C          60.4013   87.8623   10.6449 C.ar    1  UNL1        0.1408
     11 F          59.8736   88.6540   11.8046 F       1  UNL1       -0.2043
     12 C          62.6528   86.2528   12.2438 C.3     1  UNL1        0.3254
     13 F          63.9628   86.4095   12.9574 F       1  UNL1       -0.1949
     14 F          61.3668   85.7531   11.6549 F       1  UNL1       -0.1949
     15 C          62.5914   84.8164   12.6719 C.ar    1  UNL1        0.1218
     16 C          62.7091   83.7238   11.6509 C.ar    1  UNL1        0.0211
     17 C          62.6477   82.2875   12.0790 C.ar    1  UNL1        0.0144
     18 C          62.4686   81.9438   13.5281 C.ar    1  UNL1        0.0768
     19 CL         62.4072   80.5075   13.9562 Cl      1  UNL1       -0.0806
     20 C          62.3510   83.0364   14.5491 C.ar    1  UNL1        0.1100
     21 N          62.4124   84.4727   14.1210 N.ar    1  UNL1       -0.2418
     22 C          63.6068   87.9982   12.9808 C.3     1  UNL1        0.1679
     23 N          63.7104   89.4039   13.4939 N.ar    1  UNL1       -0.2078
     24 C          63.3106   89.8754   14.8606 C.ar    1  UNL1        0.2216
     25 N          63.5852   91.3478   14.9418 N.ar    1  UNL1       -0.1048
     26 N          64.1548   91.7863   13.6252 N.ar    1  UNL1       -0.0226
     27 N          64.2322   90.5849   12.7304 N.ar    1  UNL1       -0.0428
@<TRIPOS>BOND
     1     1     2    1
     2     2    22    1
     3    22    23    1
     4    23    24   ar
     5    24    25   ar
     6    25    26   ar
     7    26    27   ar
     8     2     4    1
     9     4     5   ar
    10     5     6   ar
    11     6     7   ar
    12     7     8    1
    13     7     9   ar
    14     9    10   ar
    15    10    11    1
    16     2    12    1
    17    12    13    1
    18    12    14    1
    19    12    15    1
    20    15    16   ar
    21    16    17   ar
    22    17    18   ar
    23    18    19    1
    24    18    20   ar
    25    20    21   ar
    26    27    23   ar
    27    10     4   ar
    28    21    15   ar
    29     1     3    1
@<TRIPOS>MOLECULE
*****
 27 29 0 0 0
SMALL
GASTEIGER

@<TRIPOS>ATOM
      1 O          60.6745   86.0837    8.8349 O.3     1  UNL1       -0.3755
      2 C          61.4392   86.9078    9.8278 C.3     1  UNL1        0.1932
      3 H          60.3545   86.6546    8.1190 H       1  UNL1        0.2110
      4 C          62.2073   85.6895   10.2474 C.ar    1  UNL1        0.0368
      5 C          61.9976   85.1040   11.6124 C.ar    1  UNL1        0.0028
      6 C          62.7655   83.8858   12.0320 C.ar    1  UNL1        0.0295
      7 C          63.7432   83.2530   11.0866 C.ar    1  UNL1        0.1424
      8 F          64.5112   82.0347   11.5062 F       1  UNL1       -0.2041
      9 C          63.9528   83.8385    9.7216 C.ar    1  UNL1        0.0590
     10 C          63.1849   85.0567    9.3020 C.ar    1  UNL1        0.1408
     11 F          63.3945   85.6422    7.9370 F       1  UNL1       -0.2043
     12 C          62.2039   87.7319   10.8208 C.3     1  UNL1        0.3254
     13 F          62.8112   88.5205    9.6986 F       1  UNL1       -0.1949
     14 F          61.7998   87.1661   12.1499 F       1  UNL1       -0.1949
     15 C          62.9687   88.5561   11.8138 C.ar    1  UNL1        0.1218
     16 C          63.2054   90.0143   11.5542 C.ar    1  UNL1        0.0211
     17 C          63.9701   90.8385   12.5471 C.ar    1  UNL1        0.0144
     18 C          64.4981   90.2043   13.7998 C.ar    1  UNL1        0.0768
     19 CL         65.2628   91.0285   14.7928 Cl      1  UNL1       -0.0806
     20 C          64.2614   88.7461   14.0595 C.ar    1  UNL1        0.1100
     21 N          63.4967   87.9219   13.0664 N.ar    1  UNL1       -0.2418
     22 C          60.6712   88.1260    9.4082 C.3     1  UNL1        0.1679
     23 N          59.9887   88.9745   10.4398 N.ar    1  UNL1       -0.2078
     24 C          59.8275   90.4649   10.3893 C.ar    1  UNL1        0.2216
     25 N          59.0866   90.8931   11.6213 N.ar    1  UNL1       -0.1048
     26 N          58.7899   89.6673   12.4332 N.ar    1  UNL1       -0.0226
     27 N          59.3474   88.4815   11.7030 N.ar    1  UNL1       -0.0428
@<TRIPOS>BOND
     1     1     2    1
     2     2    22    1
     3    22    23    1
     4    23    24   ar
     5    24    25   ar
     6    25    26   ar
     7    26    27   ar
     8     2     4    1
     9     4     5   ar
    10     5     6   ar
    11     6     7   ar
    12     7     8    1
    13     7     9   ar
    14     9    10   ar
    15    10    11    1
    16     2    12    1
    17    12    13    1
    18    12    14    1
    19    12    15    1
    20    15    16   ar
    21    16    17   ar
    22    17    18   ar
    23    18    19    1
    24    18    20   ar
    25    20    21   ar
    26    27    23   ar
    27    10     4   ar
    28    21    15   ar
    29     1     3    1
