@<TRIPOS>MOLECULE
*****
 42 45 0 0 0
SMALL
GASTEIGER

@<TRIPOS>ATOM
      1 N          63.7653   83.6522   13.8999 N.ar    1  UNL1       -0.2252
      2 C          63.5850   85.1412   13.9150 C.ar    1  UNL1        0.1148
      3 C          63.7191   85.6101   15.3335 C.ar    1  UNL1        0.1134
      4 N          63.9823   84.4109   16.1952 N.ar    1  UNL1       -0.1318
      5 N          64.0108   83.2008   15.3092 N.ar    1  UNL1       -0.0638
      6 C          63.6093   87.0291   15.8071 C.3     1  UNL1        0.0813
      7 C          64.5844   87.4571   14.7508 C.3     1  UNL1        0.0220
      8 C          62.6342   86.6010   16.8634 C.3     1  UNL1        0.0187
      9 C          62.9356   86.8568   18.3104 C.3     1  UNL1        0.0017
     10 C          61.3575   85.9172   16.4728 C.3     1  UNL1        0.0017
     11 N          63.4995   88.4481   16.2808 N.3     1  UNL1       -0.2914
     12 H          64.4398   88.7451   16.5414 H       1  UNL1        0.1238
     13 C          62.9497   89.5032   15.3674 C.3     1  UNL1        0.0958
     14 C          63.8748   90.4897   14.7184 C.ar    1  UNL1       -0.0063
     15 C          64.8902   91.2217   15.5450 C.ar    1  UNL1       -0.0014
     16 C          65.8153   92.2081   14.8961 C.ar    1  UNL1        0.0188
     17 C          65.7250   92.4626   13.4205 C.ar    1  UNL1        0.0813
     18 N          66.6501   93.4490   12.7717 N.ar    1  UNL1       -0.2438
     19 C          66.5599   93.7035   11.2962 C.ar    1  UNL1        0.0988
     20 C          65.5445   92.9715   10.4696 C.ar    1  UNL1        0.0207
     21 C          64.6194   91.9851   11.1185 C.ar    1  UNL1        0.0031
     22 C          64.7097   91.7306   12.5940 C.ar    1  UNL1        0.0174
     23 C          63.7845   90.7442   13.2429 C.ar    1  UNL1       -0.0014
     24 C          63.7098   82.7695   12.6884 C.3     1  UNL1        0.1676
     25 C          63.6790   83.3781   11.3178 C.2     1  UNL1        0.2165
     26 O          64.7138   82.9925   10.3025 O.2     1  UNL1       -0.2901
     27 C          62.6135   84.3723   10.9624 C.3     1  UNL1        0.2712
     28 O          62.8360   85.3407    9.8387 O.3     1  UNL1       -0.4627
     29 C          61.9344   86.5294    9.6835 C.ar    1  UNL1        0.1981
     30 C          60.9536   86.5839    8.5500 C.ar    1  UNL1        0.2034
     31 F          60.8743   85.4496    7.5717 F       1  UNL1       -0.1985
     32 C          60.0520   87.7726    8.3948 C.ar    1  UNL1        0.1728
     33 F          59.0711   87.8271    7.2612 F       1  UNL1       -0.2016
     34 C          60.1313   88.9069    9.3731 C.ar    1  UNL1        0.0641
     35 C          61.1122   88.8524   10.5067 C.ar    1  UNL1        0.1728
     36 F          61.1915   89.9867   11.4850 F       1  UNL1       -0.2016
     37 C          62.0137   87.6637   10.6619 C.ar    1  UNL1        0.2034
     38 F          62.9946   87.6093   11.7954 F       1  UNL1       -0.1985
     39 C          63.6851   81.2782   12.8475 C.3     1  UNL1        0.0321
     40 C          62.3805   80.5675   13.0543 C.3     1  UNL1        0.0024
     41 C          60.0326   80.4567   14.1614 C.3     1  UNL1        0.0000
     42 C          61.3733   81.1150   14.0216 C.3     1  UNL1        0.0001
@<TRIPOS>BOND
     1    41    42    1
     2    42    40    1
     3    40    39    1
     4    39    24    1
     5    24    25    1
     6    25    26    2
     7    25    27    1
     8    27    28    1
     9    28    29    1
    10    29    30   ar
    11    30    31    1
    12    30    32   ar
    13    32    33    1
    14    32    34   ar
    15    34    35   ar
    16    35    36    1
    17    35    37   ar
    18    37    38    1
    19    24     1    1
    20     1     2   ar
    21     2     3   ar
    22     3     6    1
    23     6     7    1
    24     6    11    1
    25    11    13    1
    26    13    14    1
    27    14    15   ar
    28    15    16   ar
    29    16    17   ar
    30    17    18   ar
    31    18    19   ar
    32    19    20   ar
    33    20    21   ar
    34    21    22   ar
    35    22    23   ar
    36     6     8    1
    37     8     9    1
    38     8    10    1
    39     3     4   ar
    40     4     5   ar
    41    37    29   ar
    42     5     1   ar
    43    23    14   ar
    44    22    17   ar
    45    11    12    1
@<TRIPOS>MOLECULE
*****
 42 45 0 0 0
SMALL
GASTEIGER

@<TRIPOS>ATOM
      1 N          63.7387   83.6564   13.9188 N.ar    1  UNL1       -0.2252
      2 C          63.5781   85.1477   13.9321 C.ar    1  UNL1        0.1148
      3 C          63.7023   85.6148   15.3521 C.ar    1  UNL1        0.1134
      4 N          63.9396   84.4121   16.2165 N.ar    1  UNL1       -0.1318
      5 N          63.9621   83.2018   15.3308 N.ar    1  UNL1       -0.0638
      6 C          63.6060   87.0351   15.8247 C.3     1  UNL1        0.0813
      7 C          64.5850   87.4531   14.7680 C.3     1  UNL1        0.0220
      8 C          62.6271   86.6171   16.8815 C.3     1  UNL1        0.0187
      9 C          62.9274   86.8785   18.3277 C.3     1  UNL1        0.0017
     10 C          61.3476   85.9376   16.4922 C.3     1  UNL1        0.0017
     11 N          63.5098   88.4554   16.2974 N.3     1  UNL1       -0.2914
     12 H          64.4545   88.7469   16.5483 H       1  UNL1        0.1238
     13 C          62.9576   89.5127   15.3879 C.3     1  UNL1        0.0958
     14 C          63.8814   90.4981   14.7355 C.ar    1  UNL1       -0.0063
     15 C          64.8920   91.2384   15.5605 C.ar    1  UNL1       -0.0014
     16 C          65.8159   92.2238   14.9082 C.ar    1  UNL1        0.0188
     17 C          65.7292   92.4688   13.4309 C.ar    1  UNL1        0.0813
     18 N          66.6531   93.4542   12.7786 N.ar    1  UNL1       -0.2438
     19 C          66.5663   93.6992   11.3013 C.ar    1  UNL1        0.0988
     20 C          65.5558   92.9588   10.4763 C.ar    1  UNL1        0.0207
     21 C          64.6319   91.9735   11.1286 C.ar    1  UNL1        0.0031
     22 C          64.7186   91.7285   12.6059 C.ar    1  UNL1        0.0174
     23 C          63.7947   90.7431   13.2582 C.ar    1  UNL1       -0.0014
     24 C          63.6853   82.7746   12.7066 C.3     1  UNL1        0.1676
     25 C          63.6606   83.3841   11.3363 C.2     1  UNL1        0.2165
     26 O          64.7073   83.0086   10.3295 O.2     1  UNL1       -0.2901
     27 C          62.5894   84.3691   10.9727 C.3     1  UNL1        0.2712
     28 O          62.8006   85.3200    9.8320 O.3     1  UNL1       -0.4627
     29 C          61.9107   86.5178    9.6794 C.ar    1  UNL1        0.1981
     30 C          62.0134   87.6568   10.6499 C.ar    1  UNL1        0.2034
     31 F          63.0059   87.5981   11.7730 F       1  UNL1       -0.1985
     32 C          61.1234   88.8546   10.4973 C.ar    1  UNL1        0.1728
     33 F          61.2261   89.9938   11.4679 F       1  UNL1       -0.2016
     34 C          60.1309   88.9134    9.3743 C.ar    1  UNL1        0.0641
     35 C          60.0282   87.7743    8.4037 C.ar    1  UNL1        0.1728
     36 F          59.0357   87.8331    7.2806 F       1  UNL1       -0.2016
     37 C          60.9182   86.5765    8.5563 C.ar    1  UNL1        0.2034
     38 F          60.8155   85.4374    7.5857 F       1  UNL1       -0.1985
     39 C          63.6565   81.2833   12.8647 C.3     1  UNL1        0.0321
     40 C          62.3470   80.5727   13.0390 C.3     1  UNL1        0.0024
     41 C          60.0044   80.4196   14.1520 C.3     1  UNL1        0.0000
     42 C          61.3512   81.0711   14.0440 C.3     1  UNL1        0.0001
@<TRIPOS>BOND
     1    41    42    1
     2    42    40    1
     3    40    39    1
     4    39    24    1
     5    24    25    1
     6    25    26    2
     7    25    27    1
     8    27    28    1
     9    28    29    1
    10    29    30   ar
    11    30    31    1
    12    30    32   ar
    13    32    33    1
    14    32    34   ar
    15    34    35   ar
    16    35    36    1
    17    35    37   ar
    18    37    38    1
    19    24     1    1
    20     1     2   ar
    21     2     3   ar
    22     3     6    1
    23     6     7    1
    24     6    11    1
    25    11    13    1
    26    13    14    1
    27    14    15   ar
    28    15    16   ar
    29    16    17   ar
    30    17    18   ar
    31    18    19   ar
    32    19    20   ar
    33    20    21   ar
    34    21    22   ar
    35    22    23   ar
    36     6     8    1
    37     8     9    1
    38     8    10    1
    39     3     4   ar
    40     4     5   ar
    41    37    29   ar
    42     5     1   ar
    43    23    14   ar
    44    22    17   ar
    45    11    12    1
@<TRIPOS>MOLECULE
*****
 42 45 0 0 0
SMALL
GASTEIGER

@<TRIPOS>ATOM
      1 N          63.9092   89.6810   14.6364 N.ar    1  UNL1       -0.2252
      2 C          64.2970   88.2483   14.4198 C.ar    1  UNL1        0.1148
      3 C          63.7895   87.4496   15.5836 C.ar    1  UNL1        0.1134
      4 N          63.0880   88.3887   16.5196 N.ar    1  UNL1       -0.1318
      5 N          63.1620   89.7678   15.9342 N.ar    1  UNL1       -0.0638
      6 C          63.9545   85.9714   15.7775 C.3     1  UNL1        0.0813
      7 C          65.1581   85.9884   14.8825 C.3     1  UNL1        0.0220
      8 C          62.7509   85.9544   16.6724 C.3     1  UNL1        0.0187
      9 C          61.4124   85.5601   16.1219 C.3     1  UNL1        0.0017
     10 C          62.8857   86.3318   18.1180 C.3     1  UNL1        0.0017
     11 N          64.1195   84.4932   15.9714 N.3     1  UNL1       -0.2914
     12 H          63.8291   84.2874   16.9272 H       1  UNL1        0.1238
     13 C          63.3878   83.5336   15.0804 C.3     1  UNL1        0.0958
     14 C          63.4366   83.7067   13.5911 C.ar    1  UNL1       -0.0063
     15 C          64.3179   82.8206   12.7616 C.ar    1  UNL1       -0.0014
     16 C          64.3667   82.9937   11.2724 C.ar    1  UNL1        0.0188
     17 C          63.5343   84.0530   10.6128 C.ar    1  UNL1        0.0813
     18 N          63.5832   84.2261    9.1236 N.ar    1  UNL1       -0.2438
     19 C          62.7508   85.2853    8.4640 C.ar    1  UNL1        0.0988
     20 C          61.8696   86.1715    9.2936 C.ar    1  UNL1        0.0207
     21 C          61.8207   85.9984   10.7827 C.ar    1  UNL1        0.0031
     22 C          62.6531   84.9391   11.4423 C.ar    1  UNL1        0.0174
     23 C          62.6043   84.7660   12.9316 C.ar    1  UNL1       -0.0014
     24 C          64.2149   90.8259   13.7168 C.3     1  UNL1        0.1676
     25 C          65.2818   91.8156   14.0803 C.2     1  UNL1        0.2165
     26 O          65.2255   92.5288   15.3988 O.2     1  UNL1       -0.2901
     27 C          66.4050   92.0922   13.1254 C.3     1  UNL1        0.2712
     28 O          66.7628   93.5069   12.7778 O.3     1  UNL1       -0.4627
     29 C          66.9963   93.8915   11.3469 C.ar    1  UNL1        0.1981
     30 C          67.7834   92.9867   10.4460 C.ar    1  UNL1        0.2034
     31 F          68.3369   91.6973   10.9759 F       1  UNL1       -0.1985
     32 C          68.0169   93.3714    9.0151 C.ar    1  UNL1        0.1728
     33 F          68.8040   92.4666    8.1140 F       1  UNL1       -0.2016
     34 C          67.4634   94.6609    8.4852 C.ar    1  UNL1        0.0641
     35 C          66.6763   95.5657    9.3861 C.ar    1  UNL1        0.1728
     36 F          66.1228   96.8552    8.8562 F       1  UNL1       -0.2016
     37 C          66.4428   95.1811   10.8170 C.ar    1  UNL1        0.2034
     38 F          65.6557   96.0859   11.7180 F       1  UNL1       -0.1985
     39 C          63.4537   90.9811   12.4337 C.3     1  UNL1        0.0321
     40 C          62.7554   89.7997   11.8282 C.3     1  UNL1        0.0024
     41 C          60.4573   89.9915   10.6315 C.3     1  UNL1        0.0000
     42 C          61.9559   89.9650   10.5699 C.3     1  UNL1        0.0001
@<TRIPOS>BOND
     1    41    42    1
     2    42    40    1
     3    40    39    1
     4    39    24    1
     5    24    25    1
     6    25    26    2
     7    25    27    1
     8    27    28    1
     9    28    29    1
    10    29    30   ar
    11    30    31    1
    12    30    32   ar
    13    32    33    1
    14    32    34   ar
    15    34    35   ar
    16    35    36    1
    17    35    37   ar
    18    37    38    1
    19    24     1    1
    20     1     2   ar
    21     2     3   ar
    22     3     6    1
    23     6     7    1
    24     6    11    1
    25    11    13    1
    26    13    14    1
    27    14    15   ar
    28    15    16   ar
    29    16    17   ar
    30    17    18   ar
    31    18    19   ar
    32    19    20   ar
    33    20    21   ar
    34    21    22   ar
    35    22    23   ar
    36     6     8    1
    37     8     9    1
    38     8    10    1
    39     3     4   ar
    40     4     5   ar
    41    37    29   ar
    42     5     1   ar
    43    23    14   ar
    44    22    17   ar
    45    11    12    1
@<TRIPOS>MOLECULE
*****
 42 45 0 0 0
SMALL
GASTEIGER

@<TRIPOS>ATOM
      1 N          62.4313   84.8278   10.8892 N.ar    1  UNL1       -0.2252
      2 C          61.3889   85.9043   10.8229 C.ar    1  UNL1        0.1148
      3 C          61.5327   86.6085    9.5063 C.ar    1  UNL1        0.1134
      4 N          62.6641   85.9672    8.7589 N.ar    1  UNL1       -0.1318
      5 N          63.2195   84.8667    9.6135 N.ar    1  UNL1       -0.0638
      6 C          60.6927   87.7529    9.0221 C.3     1  UNL1        0.0813
      7 C          60.1688   86.8969    7.9074 C.3     1  UNL1        0.0220
      8 C          61.2165   88.6090   10.1369 C.3     1  UNL1        0.0187
      9 C          62.5909   89.2027   10.0443 C.3     1  UNL1        0.0017
     10 C          60.3659   88.8715   11.3443 C.3     1  UNL1        0.0017
     11 N          59.8527   88.8974    8.5380 N.3     1  UNL1       -0.2914
     12 H          60.4750   89.6999    8.4428 H       1  UNL1        0.1238
     13 C          59.0972   88.7799    7.2474 C.3     1  UNL1        0.0958
     14 C          59.2228   89.8510    6.2047 C.ar    1  UNL1       -0.0063
     15 C          58.0287   90.6791    5.8326 C.ar    1  UNL1       -0.0014
     16 C          58.1543   91.7501    4.7899 C.ar    1  UNL1        0.0188
     17 C          59.4739   91.9929    4.1192 C.ar    1  UNL1        0.0813
     18 N          59.5995   93.0639    3.0766 N.ar    1  UNL1       -0.2438
     19 C          60.9190   93.3067    2.4060 C.ar    1  UNL1        0.0988
     20 C          62.1130   92.4785    2.7781 C.ar    1  UNL1        0.0207
     21 C          61.9875   91.4075    3.8207 C.ar    1  UNL1        0.0031
     22 C          60.6679   91.1647    4.4913 C.ar    1  UNL1        0.0174
     23 C          60.5423   90.0937    5.5341 C.ar    1  UNL1       -0.0014
     24 C          62.6477   83.8791   12.0307 C.3     1  UNL1        0.1676
     25 C          62.8287   84.4089   13.4223 C.2     1  UNL1        0.2165
     26 O          61.6459   84.5368   14.3360 O.2     1  UNL1       -0.2901
     27 C          64.1925   84.8108   13.9003 C.3     1  UNL1        0.2712
     28 O          64.6112   86.2503   13.8489 O.3     1  UNL1       -0.4627
     29 C          64.0985   87.2176   14.8742 C.ar    1  UNL1        0.1981
     30 C          64.0066   88.6786   14.5471 C.ar    1  UNL1        0.2034
     31 F          64.4274   89.1723   13.1947 F       1  UNL1       -0.1985
     32 C          63.4939   89.6459   15.5725 C.ar    1  UNL1        0.1728
     33 F          63.4020   91.1070   15.2454 F       1  UNL1       -0.2016
     34 C          63.0732   89.1523   16.9250 C.ar    1  UNL1        0.0641
     35 C          63.1651   87.6913   17.2521 C.ar    1  UNL1        0.1728
     36 F          62.7443   87.1976   18.6046 F       1  UNL1       -0.2016
     37 C          63.6777   86.7240   16.2267 C.ar    1  UNL1        0.2034
     38 F          63.7696   85.2630   16.5539 F       1  UNL1       -0.1985
     39 C          62.6830   82.4005   11.7807 C.3     1  UNL1        0.0321
     40 C          63.2525   81.4780   12.8173 C.3     1  UNL1        0.0024
     41 C          61.0341   80.9711   14.0712 C.3     1  UNL1        0.0000
     42 C          62.3570   80.5113   13.5340 C.3     1  UNL1        0.0001
@<TRIPOS>BOND
     1    41    42    1
     2    42    40    1
     3    40    39    1
     4    39    24    1
     5    24    25    1
     6    25    26    2
     7    25    27    1
     8    27    28    1
     9    28    29    1
    10    29    30   ar
    11    30    31    1
    12    30    32   ar
    13    32    33    1
    14    32    34   ar
    15    34    35   ar
    16    35    36    1
    17    35    37   ar
    18    37    38    1
    19    24     1    1
    20     1     2   ar
    21     2     3   ar
    22     3     6    1
    23     6     7    1
    24     6    11    1
    25    11    13    1
    26    13    14    1
    27    14    15   ar
    28    15    16   ar
    29    16    17   ar
    30    17    18   ar
    31    18    19   ar
    32    19    20   ar
    33    20    21   ar
    34    21    22   ar
    35    22    23   ar
    36     6     8    1
    37     8     9    1
    38     8    10    1
    39     3     4   ar
    40     4     5   ar
    41    37    29   ar
    42     5     1   ar
    43    23    14   ar
    44    22    17   ar
    45    11    12    1
@<TRIPOS>MOLECULE
*****
 42 45 0 0 0
SMALL
GASTEIGER

@<TRIPOS>ATOM
      1 N          61.8072   86.9017    9.9886 N.ar    1  UNL1       -0.2252
      2 C          62.4862   88.2368   10.0689 C.ar    1  UNL1        0.1148
      3 C          62.4087   88.7116   11.4897 C.ar    1  UNL1        0.1134
      4 N          61.6817   87.6699   12.2875 N.ar    1  UNL1       -0.1318
      5 N          61.3100   86.5513   11.3598 N.ar    1  UNL1       -0.0638
      6 C          62.9611   90.0015   12.0196 C.3     1  UNL1        0.0813
      7 C          63.7370   89.2436   13.0557 C.3     1  UNL1        0.0220
      8 C          62.1851   90.7594   10.9836 C.3     1  UNL1        0.0187
      9 C          60.6914   90.8516   11.0839 C.3     1  UNL1        0.0017
     10 C          62.9030   91.4252    9.8471 C.3     1  UNL1        0.0017
     11 N          63.5135   91.2914   12.5496 N.3     1  UNL1       -0.2914
     12 H          63.1118   91.4245   13.4777 H       1  UNL1        0.1238
     13 C          64.9961   91.4711   12.6896 C.3     1  UNL1        0.0958
     14 C          65.7393   92.3495   11.7272 C.ar    1  UNL1       -0.0063
     15 C          66.9959   91.8531   11.0756 C.ar    1  UNL1       -0.0014
     16 C          67.7391   92.7314   10.1132 C.ar    1  UNL1        0.0188
     17 C          67.2257   94.1062    9.8025 C.ar    1  UNL1        0.0813
     18 N          67.9689   94.9845    8.8401 N.ar    1  UNL1       -0.2438
     19 C          67.4556   96.3592    8.5294 C.ar    1  UNL1        0.0988
     20 C          66.1990   96.8556    9.1810 C.ar    1  UNL1        0.0207
     21 C          65.4558   95.9773   10.1434 C.ar    1  UNL1        0.0031
     22 C          65.9692   94.6026   10.4541 C.ar    1  UNL1        0.0174
     23 C          65.2259   93.7242   11.4165 C.ar    1  UNL1       -0.0014
     24 C          61.6525   86.0640    8.7540 C.3     1  UNL1        0.1676
     25 C          62.6968   85.0463    8.4024 C.2     1  UNL1        0.2165
     26 O          62.7565   84.4817    7.0139 O.2     1  UNL1       -0.2901
     27 C          63.6815   84.5931    9.4393 C.3     1  UNL1        0.2712
     28 O          63.8186   83.1334    9.7561 O.3     1  UNL1       -0.4627
     29 C          63.4244   82.6193   11.1089 C.ar    1  UNL1        0.1981
     30 C          63.4345   83.5397   12.2932 C.ar    1  UNL1        0.2034
     31 F          63.8389   84.9742   12.1247 F       1  UNL1       -0.1985
     32 C          63.0402   83.0255   13.6461 C.ar    1  UNL1        0.1728
     33 F          63.0504   83.9460   14.8305 F       1  UNL1       -0.2016
     34 C          62.6358   81.5910   13.8146 C.ar    1  UNL1        0.0641
     35 C          62.6257   80.6705   12.6303 C.ar    1  UNL1        0.1728
     36 F          62.2213   79.2359   12.7988 F       1  UNL1       -0.2016
     37 C          63.0200   81.1846   11.2774 C.ar    1  UNL1        0.2034
     38 F          63.0098   80.2642   10.0931 F       1  UNL1       -0.1985
     39 C          60.4535   86.2441    7.8708 C.3     1  UNL1        0.0321
     40 C          59.4549   87.3218    8.1725 C.3     1  UNL1        0.0024
     41 C          59.2660   89.3816    6.6002 C.3     1  UNL1        0.0000
     42 C          59.7791   88.7530    7.8619 C.3     1  UNL1        0.0001
@<TRIPOS>BOND
     1    41    42    1
     2    42    40    1
     3    40    39    1
     4    39    24    1
     5    24    25    1
     6    25    26    2
     7    25    27    1
     8    27    28    1
     9    28    29    1
    10    29    30   ar
    11    30    31    1
    12    30    32   ar
    13    32    33    1
    14    32    34   ar
    15    34    35   ar
    16    35    36    1
    17    35    37   ar
    18    37    38    1
    19    24     1    1
    20     1     2   ar
    21     2     3   ar
    22     3     6    1
    23     6     7    1
    24     6    11    1
    25    11    13    1
    26    13    14    1
    27    14    15   ar
    28    15    16   ar
    29    16    17   ar
    30    17    18   ar
    31    18    19   ar
    32    19    20   ar
    33    20    21   ar
    34    21    22   ar
    35    22    23   ar
    36     6     8    1
    37     8     9    1
    38     8    10    1
    39     3     4   ar
    40     4     5   ar
    41    37    29   ar
    42     5     1   ar
    43    23    14   ar
    44    22    17   ar
    45    11    12    1
@<TRIPOS>MOLECULE
*****
 42 45 0 0 0
SMALL
GASTEIGER

@<TRIPOS>ATOM
      1 N          62.4159   85.0184   10.8907 N.ar    1  UNL1       -0.2252
      2 C          61.3999   86.1204   10.8329 C.ar    1  UNL1        0.1148
      3 C          61.4335   86.7100    9.4541 C.ar    1  UNL1        0.1134
      4 N          62.4702   85.9724    8.6596 N.ar    1  UNL1       -0.1318
      5 N          63.0773   84.9269    9.5475 N.ar    1  UNL1       -0.0638
      6 C          60.5802   87.8390    8.9569 C.3     1  UNL1        0.0813
      7 C          59.9895   86.9344    7.9164 C.3     1  UNL1        0.0220
      8 C          61.1708   88.7436    9.9974 C.3     1  UNL1        0.0187
      9 C          62.5429   89.3172    9.8011 C.3     1  UNL1        0.0017
     10 C          60.3895   89.0747   11.2344 C.3     1  UNL1        0.0017
     11 N          59.7268   88.9680    8.4598 N.3     1  UNL1       -0.2914
     12 H          60.3299   89.7884    8.3993 H       1  UNL1        0.1238
     13 C          59.0217   88.8508    7.1411 C.3     1  UNL1        0.0958
     14 C          59.1806   89.9262    6.1074 C.ar    1  UNL1       -0.0063
     15 C          58.0082   90.7820    5.7292 C.ar    1  UNL1       -0.0014
     16 C          58.1670   91.8574    4.6956 C.ar    1  UNL1        0.0188
     17 C          59.4983   92.0770    4.0402 C.ar    1  UNL1        0.0813
     18 N          59.6572   93.1523    3.0066 N.ar    1  UNL1       -0.2438
     19 C          60.9884   93.3718    2.3513 C.ar    1  UNL1        0.0988
     20 C          62.1608   92.5160    2.7295 C.ar    1  UNL1        0.0207
     21 C          62.0020   91.4407    3.7630 C.ar    1  UNL1        0.0031
     22 C          60.6707   91.2211    4.4184 C.ar    1  UNL1        0.0174
     23 C          60.5118   90.1457    5.4521 C.ar    1  UNL1       -0.0014
     24 C          62.7174   84.1588   12.0824 C.3     1  UNL1        0.1676
     25 C          62.7289   84.7594   13.4568 C.2     1  UNL1        0.2165
     26 O          61.6943   84.3498   14.4629 O.2     1  UNL1       -0.2901
     27 C          63.7747   85.7696   13.8252 C.3     1  UNL1        0.2712
     28 O          63.5542   86.6861   14.9919 O.3     1  UNL1       -0.4627
     29 C          63.6669   88.1709   14.8111 C.ar    1  UNL1        0.1981
     30 C          63.6427   89.0761   16.0069 C.ar    1  UNL1        0.2034
     31 F          63.5058   88.4965   17.3836 F       1  UNL1       -0.1985
     32 C          63.7555   90.5609   15.8260 C.ar    1  UNL1        0.1728
     33 F          63.7313   91.4661   17.0219 F       1  UNL1       -0.2016
     34 C          63.8924   91.1404   14.4493 C.ar    1  UNL1        0.0641
     35 C          63.9166   90.2353   13.2535 C.ar    1  UNL1        0.1728
     36 F          64.0535   90.8149   11.8768 F       1  UNL1       -0.2016
     37 C          63.8038   88.7505   13.4343 C.ar    1  UNL1        0.2034
     38 F          63.8280   87.8454   12.2385 F       1  UNL1       -0.1985
     39 C          63.0076   82.6985   11.8997 C.3     1  UNL1        0.0321
     40 C          63.2901   81.8349   13.0931 C.3     1  UNL1        0.0024
     41 C          61.0424   80.8914   13.9919 C.3     1  UNL1        0.0000
     42 C          62.4021   80.6656   13.3998 C.3     1  UNL1        0.0001
@<TRIPOS>BOND
     1    41    42    1
     2    42    40    1
     3    40    39    1
     4    39    24    1
     5    24    25    1
     6    25    26    2
     7    25    27    1
     8    27    28    1
     9    28    29    1
    10    29    30   ar
    11    30    31    1
    12    30    32   ar
    13    32    33    1
    14    32    34   ar
    15    34    35   ar
    16    35    36    1
    17    35    37   ar
    18    37    38    1
    19    24     1    1
    20     1     2   ar
    21     2     3   ar
    22     3     6    1
    23     6     7    1
    24     6    11    1
    25    11    13    1
    26    13    14    1
    27    14    15   ar
    28    15    16   ar
    29    16    17   ar
    30    17    18   ar
    31    18    19   ar
    32    19    20   ar
    33    20    21   ar
    34    21    22   ar
    35    22    23   ar
    36     6     8    1
    37     8     9    1
    38     8    10    1
    39     3     4   ar
    40     4     5   ar
    41    37    29   ar
    42     5     1   ar
    43    23    14   ar
    44    22    17   ar
    45    11    12    1
@<TRIPOS>MOLECULE
*****
 42 45 0 0 0
SMALL
GASTEIGER

@<TRIPOS>ATOM
      1 N          61.4162   86.6342    9.4654 N.ar    1  UNL1       -0.2252
      2 C          62.2702   87.8157    9.8185 C.ar    1  UNL1        0.1148
      3 C          61.9027   88.2556   11.2046 C.ar    1  UNL1        0.1134
      4 N          60.8216   87.3460   11.7083 N.ar    1  UNL1       -0.1318
      5 N          60.5209   86.3439   10.6334 N.ar    1  UNL1       -0.0638
      6 C          62.5098   89.4035   11.9554 C.3     1  UNL1        0.0813
      7 C          63.1130   88.4428   12.9367 C.3     1  UNL1        0.0220
      8 C          61.9067   90.3643   10.9740 C.3     1  UNL1        0.0187
      9 C          62.7943   91.1985   10.0987 C.3     1  UNL1        0.0017
     10 C          60.4157   90.4909   10.8680 C.3     1  UNL1        0.0017
     11 N          63.1169   90.5515   12.7061 N.3     1  UNL1       -0.2914
     12 H          62.4792   91.3408   12.6031 H       1  UNL1        0.1238
     13 C          63.4087   90.4189   14.1715 C.3     1  UNL1        0.0958
     14 C          64.5512   91.1766   14.7803 C.ar    1  UNL1       -0.0063
     15 C          64.3656   91.8924   16.0854 C.ar    1  UNL1       -0.0014
     16 C          65.5080   92.6501   16.6942 C.ar    1  UNL1        0.0188
     17 C          66.8360   92.6921   15.9979 C.ar    1  UNL1        0.0813
     18 N          67.9784   93.4499   16.6068 N.ar    1  UNL1       -0.2438
     19 C          69.3064   93.4919   15.9105 C.ar    1  UNL1        0.0988
     20 C          69.4919   92.7761   14.6054 C.ar    1  UNL1        0.0207
     21 C          68.3495   92.0183   13.9966 C.ar    1  UNL1        0.0031
     22 C          67.0216   91.9764   14.6928 C.ar    1  UNL1        0.0174
     23 C          65.8791   91.2186   14.0840 C.ar    1  UNL1       -0.0014
     24 C          61.4513   85.8761    8.1715 C.3     1  UNL1        0.1676
     25 C          62.6110   84.9772    7.8602 C.2     1  UNL1        0.2165
     26 O          62.7823   84.4263    6.4755 O.2     1  UNL1       -0.2901
     27 C          63.5994   84.6291    8.9334 C.3     1  UNL1        0.2712
     28 O          63.7325   83.2093    9.3986 O.3     1  UNL1       -0.4627
     29 C          63.3124   82.8330   10.7886 C.ar    1  UNL1        0.1981
     30 C          63.0271   81.3990   11.1234 C.ar    1  UNL1        0.2034
     31 F          63.1617   80.3413   10.0684 F       1  UNL1       -0.1985
     32 C          62.6070   81.0228   12.5134 C.ar    1  UNL1        0.1728
     33 F          62.3216   79.5887   12.8484 F       1  UNL1       -0.2016
     34 C          62.4724   82.0804   13.5684 C.ar    1  UNL1        0.0641
     35 C          62.7577   83.5144   13.2336 C.ar    1  UNL1        0.1728
     36 F          62.6231   84.5721   14.2886 F       1  UNL1       -0.2016
     37 C          63.1778   83.8907   11.8436 C.ar    1  UNL1        0.2034
     38 F          63.4631   85.3247   11.5088 F       1  UNL1       -0.1985
     39 C          60.3267   86.0170    7.1890 C.3     1  UNL1        0.0321
     40 C          59.0980   86.7926    7.5615 C.3     1  UNL1        0.0024
     41 C          59.4451   89.2008    6.6503 C.3     1  UNL1        0.0000
     42 C          59.1876   88.2709    7.7989 C.3     1  UNL1        0.0001
@<TRIPOS>BOND
     1    41    42    1
     2    42    40    1
     3    40    39    1
     4    39    24    1
     5    24    25    1
     6    25    26    2
     7    25    27    1
     8    27    28    1
     9    28    29    1
    10    29    30   ar
    11    30    31    1
    12    30    32   ar
    13    32    33    1
    14    32    34   ar
    15    34    35   ar
    16    35    36    1
    17    35    37   ar
    18    37    38    1
    19    24     1    1
    20     1     2   ar
    21     2     3   ar
    22     3     6    1
    23     6     7    1
    24     6    11    1
    25    11    13    1
    26    13    14    1
    27    14    15   ar
    28    15    16   ar
    29    16    17   ar
    30    17    18   ar
    31    18    19   ar
    32    19    20   ar
    33    20    21   ar
    34    21    22   ar
    35    22    23   ar
    36     6     8    1
    37     8     9    1
    38     8    10    1
    39     3     4   ar
    40     4     5   ar
    41    37    29   ar
    42     5     1   ar
    43    23    14   ar
    44    22    17   ar
    45    11    12    1
@<TRIPOS>MOLECULE
*****
 42 45 0 0 0
SMALL
GASTEIGER

@<TRIPOS>ATOM
      1 N          64.1026   90.3050   14.3332 N.ar    1  UNL1       -0.2252
      2 C          64.2082   88.8090   14.3047 C.ar    1  UNL1        0.1148
      3 C          63.7468   88.2863   15.6328 C.ar    1  UNL1        0.1134
      4 N          63.3560   89.4592   16.4822 N.ar    1  UNL1       -0.1318
      5 N          63.5759   90.7069   15.6790 N.ar    1  UNL1       -0.0638
      6 C          63.6867   86.8439   16.0401 C.3     1  UNL1        0.0813
      7 C          64.7680   86.5200   15.0523 C.3     1  UNL1        0.0220
      8 C          62.6053   87.1678   17.0278 C.3     1  UNL1        0.0187
      9 C          61.3144   87.7688   16.5564 C.3     1  UNL1        0.0017
     10 C          62.8149   86.8908   18.4871 C.3     1  UNL1        0.0017
     11 N          63.6266   85.4015   16.4473 N.3     1  UNL1       -0.2914
     12 H          63.6790   85.3807   17.4657 H       1  UNL1        0.1238
     13 C          62.4474   84.5605   16.0571 C.3     1  UNL1        0.0958
     14 C          62.5385   83.6446   14.8727 C.ar    1  UNL1       -0.0063
     15 C          61.8003   82.3388   14.8758 C.ar    1  UNL1       -0.0014
     16 C          61.8914   81.4229   13.6915 C.ar    1  UNL1        0.0188
     17 C          62.7208   81.8126   12.5039 C.ar    1  UNL1        0.0813
     18 N          62.8119   80.8967   11.3196 N.ar    1  UNL1       -0.2438
     19 C          63.6413   81.2865   10.1321 C.ar    1  UNL1        0.0988
     20 C          64.3796   82.5922   10.1290 C.ar    1  UNL1        0.0207
     21 C          64.2885   83.5081   11.3133 C.ar    1  UNL1        0.0031
     22 C          63.4591   83.1184   12.5008 C.ar    1  UNL1        0.0174
     23 C          63.3680   84.0343   13.6852 C.ar    1  UNL1       -0.0014
     24 C          64.4608   91.2357   13.2127 C.3     1  UNL1        0.1676
     25 C          63.6457   91.2422   11.9536 C.2     1  UNL1        0.2165
     26 O          64.2908   91.5887   10.6443 O.2     1  UNL1       -0.2901
     27 C          62.1856   90.9024   12.0036 C.3     1  UNL1        0.2712
     28 O          61.7529   89.4771   12.1809 O.3     1  UNL1       -0.4627
     29 C          61.4133   88.6418   10.9822 C.ar    1  UNL1        0.1981
     30 C          60.4493   89.1593    9.9561 C.ar    1  UNL1        0.2034
     31 F          59.8250   90.5121   10.1287 F       1  UNL1       -0.1985
     32 C          60.1098   88.3239    8.7574 C.ar    1  UNL1        0.1728
     33 F          59.1458   88.8414    7.7312 F       1  UNL1       -0.2016
     34 C          60.7342   86.9710    8.5849 C.ar    1  UNL1        0.0641
     35 C          61.6982   86.4535    9.6109 C.ar    1  UNL1        0.1728
     36 F          62.3226   85.1006    9.4384 F       1  UNL1       -0.2016
     37 C          62.0377   87.2889   10.8096 C.ar    1  UNL1        0.2034
     38 F          63.0017   86.7713   11.8357 F       1  UNL1       -0.1985
     39 C          65.6341   92.1598   13.3514 C.3     1  UNL1        0.0321
     40 C          66.7620   91.8066   14.2750 C.3     1  UNL1        0.0024
     41 C          68.0784   93.3570   15.8917 C.3     1  UNL1        0.0000
     42 C          66.8867   92.4928   15.6030 C.3     1  UNL1        0.0001
@<TRIPOS>BOND
     1    41    42    1
     2    42    40    1
     3    40    39    1
     4    39    24    1
     5    24    25    1
     6    25    26    2
     7    25    27    1
     8    27    28    1
     9    28    29    1
    10    29    30   ar
    11    30    31    1
    12    30    32   ar
    13    32    33    1
    14    32    34   ar
    15    34    35   ar
    16    35    36    1
    17    35    37   ar
    18    37    38    1
    19    24     1    1
    20     1     2   ar
    21     2     3   ar
    22     3     6    1
    23     6     7    1
    24     6    11    1
    25    11    13    1
    26    13    14    1
    27    14    15   ar
    28    15    16   ar
    29    16    17   ar
    30    17    18   ar
    31    18    19   ar
    32    19    20   ar
    33    20    21   ar
    34    21    22   ar
    35    22    23   ar
    36     6     8    1
    37     8     9    1
    38     8    10    1
    39     3     4   ar
    40     4     5   ar
    41    37    29   ar
    42     5     1   ar
    43    23    14   ar
    44    22    17   ar
    45    11    12    1
@<TRIPOS>MOLECULE
*****
 42 45 0 0 0
SMALL
GASTEIGER

@<TRIPOS>ATOM
      1 N          62.5324   84.8243   11.1819 N.ar    1  UNL1       -0.2252
      2 C          62.1444   86.2414   11.4841 C.ar    1  UNL1        0.1148
      3 C          62.0948   86.9949   10.1881 C.ar    1  UNL1        0.1134
      4 N          62.4521   86.0435    9.0848 N.ar    1  UNL1       -0.1318
      5 N          62.7226   84.7020    9.6990 N.ar    1  UNL1       -0.0638
      6 C          61.7487   88.4451   10.0241 C.3     1  UNL1        0.0813
      7 C          63.2065   88.7808    9.9153 C.3     1  UNL1        0.0220
      8 C          60.2908   88.1095   10.1329 C.3     1  UNL1        0.0187
      9 C          59.5342   88.4492   11.3827 C.3     1  UNL1        0.0017
     10 C          59.5895   87.4340    8.9918 C.3     1  UNL1        0.0017
     11 N          61.4025   89.8954    9.8601 N.3     1  UNL1       -0.2914
     12 H          60.4104   89.9367    9.6270 H       1  UNL1        0.1238
     13 C          61.6209   90.8516   10.9949 C.3     1  UNL1        0.0958
     14 C          63.0026   91.3487   11.3015 C.ar    1  UNL1       -0.0063
     15 C          63.8059   92.0356   10.2371 C.ar    1  UNL1       -0.0014
     16 C          65.1875   92.5327   10.5436 C.ar    1  UNL1        0.0188
     17 C          65.7660   92.3428   11.9145 C.ar    1  UNL1        0.0813
     18 N          67.1476   92.8399   12.2210 N.ar    1  UNL1       -0.2438
     19 C          67.7260   92.6500   13.5919 C.ar    1  UNL1        0.0988
     20 C          66.9228   91.9631   14.6563 C.ar    1  UNL1        0.0207
     21 C          65.5411   91.4660   14.3498 C.ar    1  UNL1        0.0031
     22 C          64.9627   91.6559   12.9789 C.ar    1  UNL1        0.0174
     23 C          63.5810   91.1588   12.6724 C.ar    1  UNL1       -0.0014
     24 C          62.7007   83.7229   12.1862 C.3     1  UNL1        0.1676
     25 C          62.9586   84.0540   13.6263 C.2     1  UNL1        0.2165
     26 O          61.8087   84.2210   14.5750 O.2     1  UNL1       -0.2901
     27 C          64.3662   84.2180   14.1177 C.3     1  UNL1        0.2712
     28 O          64.9200   85.5903   14.3627 O.3     1  UNL1       -0.4627
     29 C          64.2260   86.5206   15.3129 C.ar    1  UNL1        0.1981
     30 C          63.6836   85.9995   16.6107 C.ar    1  UNL1        0.2034
     31 F          63.8352   84.5483   16.9583 F       1  UNL1       -0.1985
     32 C          62.9895   86.9298   17.5609 C.ar    1  UNL1        0.1728
     33 F          62.4471   86.4088   18.8588 F       1  UNL1       -0.2016
     34 C          62.8378   88.3810   17.2133 C.ar    1  UNL1        0.0641
     35 C          63.3802   88.9021   15.9155 C.ar    1  UNL1        0.1728
     36 F          63.2285   90.3534   15.5680 F       1  UNL1       -0.2016
     37 C          64.0743   87.9719   14.9653 C.ar    1  UNL1        0.2034
     38 F          64.6167   88.4929   13.6675 F       1  UNL1       -0.1985
     39 C          62.6111   82.2905   11.7504 C.3     1  UNL1        0.0321
     40 C          63.2286   81.2112   12.5894 C.3     1  UNL1        0.0024
     41 C          61.0445   80.9106   13.9641 C.3     1  UNL1        0.0000
     42 C          62.3688   80.3827   13.4973 C.3     1  UNL1        0.0001
@<TRIPOS>BOND
     1    41    42    1
     2    42    40    1
     3    40    39    1
     4    39    24    1
     5    24    25    1
     6    25    26    2
     7    25    27    1
     8    27    28    1
     9    28    29    1
    10    29    30   ar
    11    30    31    1
    12    30    32   ar
    13    32    33    1
    14    32    34   ar
    15    34    35   ar
    16    35    36    1
    17    35    37   ar
    18    37    38    1
    19    24     1    1
    20     1     2   ar
    21     2     3   ar
    22     3     6    1
    23     6     7    1
    24     6    11    1
    25    11    13    1
    26    13    14    1
    27    14    15   ar
    28    15    16   ar
    29    16    17   ar
    30    17    18   ar
    31    18    19   ar
    32    19    20   ar
    33    20    21   ar
    34    21    22   ar
    35    22    23   ar
    36     6     8    1
    37     8     9    1
    38     8    10    1
    39     3     4   ar
    40     4     5   ar
    41    37    29   ar
    42     5     1   ar
    43    23    14   ar
    44    22    17   ar
    45    11    12    1
