@<TRIPOS>MOLECULE
*****
 44 49 0 0 0
SMALL
GASTEIGER

@<TRIPOS>ATOM
      1 C          60.9422   87.2274    9.4605 C.ar    1  UNL1        0.0115
      2 C          60.4496   87.5866    8.0899 C.ar    1  UNL1        0.0579
      3 CL         59.7379   88.8880    7.8660 Cl      1  UNL1       -0.0822
      4 C          60.6686   86.6446    6.9434 C.ar    1  UNL1        0.0174
      5 C          61.3802   85.3433    7.1673 C.ar    1  UNL1        0.0716
      6 C          61.8728   84.9840    8.5379 C.ar    1  UNL1        0.0854
      7 N          62.6017   83.7811    9.0591 N.2     1  UNL1       -0.2455
      8 C          62.8332   83.9797   10.5278 C.2     1  UNL1        0.0774
      9 C          63.5017   83.1247   11.5631 C.2     1  UNL1        0.0164
     10 C          63.5844   83.5953   12.9849 C.2     1  UNL1       -0.0007
     11 C          62.9985   84.9210   13.3714 C.2     1  UNL1       -0.0233
     12 C          62.3300   85.7760   12.3361 C.3     1  UNL1        0.0536
     13 C          62.2473   85.3054   10.9143 C.2     1  UNL1        0.0013
     14 C          61.6538   85.9260    9.6844 C.ar    1  UNL1        0.0164
     15 C          63.2686   88.6854   10.6693 C.3     1  UNL1        0.0326
     16 C          61.8863   88.8985   11.2114 C.ar    1  UNL1       -0.0055
     17 C          60.7231   88.1695   10.6070 C.ar    1  UNL1       -0.0017
     18 C          59.3408   88.3824   11.1491 C.ar    1  UNL1       -0.0002
     19 C          59.1218   89.3245   12.2956 C.ar    1  UNL1        0.0015
     20 C          60.2851   90.0536   12.9001 C.ar    1  UNL1        0.0174
     21 C          61.6673   89.8405   12.3579 C.ar    1  UNL1        0.0671
     22 N          62.8306   90.5696   12.9624 N.ar    1  UNL1       -0.2272
     23 C          63.1871   90.3497   14.4027 C.ar    1  UNL1        0.2697
     24 O          62.3804   89.4008   15.2386 O.2     1  UNL1       -0.2664
     25 C          64.3504   91.0788   15.0071 C.ar    1  UNL1        0.0797
     26 C          65.1572   92.0277   14.1712 C.ar    1  UNL1        0.0835
     27 C          66.3204   92.7567   14.7756 C.ar    1  UNL1        0.0741
     28 CL         66.6769   92.5368   16.2159 Cl      1  UNL1       -0.0807
     29 C          67.1271   93.7056   13.9396 C.ar    1  UNL1        0.0144
     30 C          66.7706   93.9255   12.4993 C.ar    1  UNL1        0.0200
     31 C          65.6073   93.1964   11.8949 C.ar    1  UNL1        0.0844
     32 N          64.8006   92.2475   12.7309 N.ar    1  UNL1       -0.2576
     33 C          63.6374   91.5185   12.1265 C.ar    1  UNL1        0.3416
     34 O          63.2808   91.7384   10.6861 O.2     1  UNL1       -0.2455
     35 C          61.5993   84.4013    6.0208 C.2     1  UNL1        0.2442
     36 N          62.8706   84.4679    5.2277 N.am    1  UNL1       -0.3253
     37 O          60.5468   83.3926    5.6673 O.2     1  UNL1       -0.2703
     38 H          63.5614   85.1299    5.4597 H       1  UNL1        0.1453
     39 H          63.0144   83.8496    4.4752 H       1  UNL1        0.1453
     40 C          64.2529   82.7403   14.0203 C.3     1  UNL1        0.1069
     41 C          64.6183   83.9690   14.7992 C.3     1  UNL1        0.0339
     42 C          63.8876   81.5115   13.2415 C.3     1  UNL1        0.0339
     43 O          64.9214   81.8853   15.0557 O.3     1  UNL1       -0.3827
     44 H          65.2883   82.4501   15.7537 H       1  UNL1        0.2107
@<TRIPOS>BOND
     1    15    16    1
     2    16    17   ar
     3    17     1    1
     4     1     2   ar
     5     2     3    1
     6     2     4   ar
     7     4     5   ar
     8     5    35    1
     9    35    36   am
    10    35    37    2
    11     5     6   ar
    12     6     7    2
    13     7     8    1
    14     8     9    2
    15     9    10    1
    16    10    40    1
    17    40    41    1
    18    40    42    1
    19    40    43    1
    20    10    11    2
    21    11    12    1
    22    12    13    1
    23    13    14    2
    24    17    18   ar
    25    18    19   ar
    26    19    20   ar
    27    20    21   ar
    28    21    22    1
    29    22    23   ar
    30    23    24    2
    31    23    25   ar
    32    25    26   ar
    33    26    27   ar
    34    27    28    1
    35    27    29   ar
    36    29    30   ar
    37    30    31   ar
    38    31    32   ar
    39    32    33   ar
    40    33    34    2
    41    21    16   ar
    42    33    22   ar
    43    14     1   ar
    44    32    26   ar
    45    14     6   ar
    46    13     8    1
    47    36    38    1
    48    36    39    1
    49    43    44    1
@<TRIPOS>MOLECULE
*****
 44 49 0 0 0
SMALL
GASTEIGER

@<TRIPOS>ATOM
      1 C          64.4591   90.6501   14.0739 C.ar    1  UNL1        0.0115
      2 C          65.4549   91.6674   14.5465 C.ar    1  UNL1        0.0579
      3 CL         65.9770   91.6095   15.9516 Cl      1  UNL1       -0.0822
      4 C          65.9286   92.7427   13.6141 C.ar    1  UNL1        0.0174
      5 C          65.4065   92.8006   12.2091 C.ar    1  UNL1        0.0716
      6 C          64.4107   91.7832   11.7365 C.ar    1  UNL1        0.0854
      7 N          63.7236   91.5886   10.4174 N.2     1  UNL1       -0.2455
      8 C          62.8252   90.3931   10.5346 C.2     1  UNL1        0.0774
      9 C          61.9042   89.7298    9.5540 C.2     1  UNL1        0.0164
     10 C          61.1150   88.5222    9.9649 C.2     1  UNL1       -0.0007
     11 C          61.2469   87.9779   11.3564 C.2     1  UNL1       -0.0233
     12 C          62.1680   88.6412   12.3370 C.3     1  UNL1        0.0536
     13 C          62.9571   89.8488   11.9261 C.2     1  UNL1        0.0013
     14 C          63.9370   90.7079   12.6689 C.ar    1  UNL1        0.0164
     15 C          64.6092   87.7713   13.2435 C.3     1  UNL1        0.0326
     16 C          64.0605   88.1354   14.5911 C.ar    1  UNL1       -0.0055
     17 C          63.9854   89.5747   15.0064 C.ar    1  UNL1       -0.0017
     18 C          63.4366   89.9390   16.3541 C.ar    1  UNL1       -0.0002
     19 C          62.9630   88.8637   17.2865 C.ar    1  UNL1        0.0015
     20 C          63.0381   87.4243   16.8712 C.ar    1  UNL1        0.0174
     21 C          63.5868   87.0601   15.5236 C.ar    1  UNL1        0.0671
     22 N          63.6619   85.6207   15.1083 N.ar    1  UNL1       -0.2272
     23 C          64.9863   85.0089   14.7593 C.ar    1  UNL1        0.2697
     24 O          66.2355   85.8365   14.8256 O.2     1  UNL1       -0.2664
     25 C          65.0614   83.5695   14.3441 C.ar    1  UNL1        0.0797
     26 C          63.8121   82.7418   14.2778 C.ar    1  UNL1        0.0835
     27 C          63.8872   81.3025   13.8625 C.ar    1  UNL1        0.0741
     28 CL         65.2116   80.6907   13.5136 Cl      1  UNL1       -0.0807
     29 C          62.6379   80.4748   13.7963 C.ar    1  UNL1        0.0144
     30 C          61.3136   81.0866   14.1452 C.ar    1  UNL1        0.0200
     31 C          61.2385   82.5261   14.5605 C.ar    1  UNL1        0.0844
     32 N          62.4878   83.3536   14.6267 N.ar    1  UNL1       -0.2576
     33 C          62.4127   84.7931   15.0420 C.ar    1  UNL1        0.3416
     34 O          61.0883   85.4048   15.3910 O.2     1  UNL1       -0.2455
     35 C          65.8802   93.8759   11.2767 C.2     1  UNL1        0.2442
     36 N          66.0812   93.5718    9.8217 N.am    1  UNL1       -0.3253
     37 O          66.1528   95.2553   11.7993 O.2     1  UNL1       -0.2703
     38 H          65.9023   92.6666    9.4787 H       1  UNL1        0.1453
     39 H          66.3921   94.2776    9.2097 H       1  UNL1        0.1453
     40 C          60.1939   87.8588    8.9843 C.3     1  UNL1        0.1069
     41 C          59.8316   89.1995    8.4175 C.3     1  UNL1        0.0339
     42 C          60.5562   86.5181    9.5510 C.3     1  UNL1        0.0339
     43 O          59.2728   87.1954    8.0037 O.3     1  UNL1       -0.3827
     44 H          58.8534   87.8698    7.4468 H       1  UNL1        0.2107
@<TRIPOS>BOND
     1    15    16    1
     2    16    17   ar
     3    17     1    1
     4     1     2   ar
     5     2     3    1
     6     2     4   ar
     7     4     5   ar
     8     5    35    1
     9    35    36   am
    10    35    37    2
    11     5     6   ar
    12     6     7    2
    13     7     8    1
    14     8     9    2
    15     9    10    1
    16    10    40    1
    17    40    41    1
    18    40    42    1
    19    40    43    1
    20    10    11    2
    21    11    12    1
    22    12    13    1
    23    13    14    2
    24    17    18   ar
    25    18    19   ar
    26    19    20   ar
    27    20    21   ar
    28    21    22    1
    29    22    23   ar
    30    23    24    2
    31    23    25   ar
    32    25    26   ar
    33    26    27   ar
    34    27    28    1
    35    27    29   ar
    36    29    30   ar
    37    30    31   ar
    38    31    32   ar
    39    32    33   ar
    40    33    34    2
    41    21    16   ar
    42    33    22   ar
    43    14     1   ar
    44    32    26   ar
    45    14     6   ar
    46    13     8    1
    47    36    38    1
    48    36    39    1
    49    43    44    1
@<TRIPOS>MOLECULE
*****
 44 49 0 0 0
SMALL
GASTEIGER

@<TRIPOS>ATOM
      1 C          64.5052   90.8640   13.6883 C.ar    1  UNL1        0.0115
      2 C          65.6073   91.7803   14.1310 C.ar    1  UNL1        0.0579
      3 CL         66.1797   91.6525   15.5116 Cl      1  UNL1       -0.0822
      4 C          66.1369   92.8242   13.1931 C.ar    1  UNL1        0.0174
      5 C          65.5645   92.9519   11.8125 C.ar    1  UNL1        0.0716
      6 C          64.4624   92.0356   11.3699 C.ar    1  UNL1        0.0854
      7 N          63.7066   91.9252   10.0789 N.2     1  UNL1       -0.2455
      8 C          62.7098   90.8131   10.2189 C.2     1  UNL1        0.0774
      9 C          61.6930   90.2512    9.2701 C.2     1  UNL1        0.0164
     10 C          60.8160   89.1124    9.6988 C.2     1  UNL1       -0.0007
     11 C          60.9558   88.5354   11.0763 C.2     1  UNL1       -0.0233
     12 C          61.9726   89.0972   12.0251 C.3     1  UNL1        0.0536
     13 C          62.8496   90.2361   11.5965 C.2     1  UNL1        0.0013
     14 C          63.9328   90.9917   12.3077 C.ar    1  UNL1        0.0164
     15 C          64.5571   87.9709   12.8965 C.3     1  UNL1        0.0326
     16 C          64.0016   88.3735   14.2303 C.ar    1  UNL1       -0.0055
     17 C          63.9756   89.8200   14.6263 C.ar    1  UNL1       -0.0017
     18 C          63.4200   90.2227   15.9602 C.ar    1  UNL1       -0.0002
     19 C          62.8904   89.1787   16.8980 C.ar    1  UNL1        0.0015
     20 C          62.9164   87.7321   16.5021 C.ar    1  UNL1        0.0174
     21 C          63.4720   87.3296   15.1682 C.ar    1  UNL1        0.0671
     22 N          63.4980   85.8830   14.7722 N.ar    1  UNL1       -0.2272
     23 C          63.9093   84.8399   15.7686 C.ar    1  UNL1        0.2697
     24 O          64.2946   85.2434   17.1610 O.2     1  UNL1       -0.2664
     25 C          63.9353   83.3933   15.3726 C.ar    1  UNL1        0.0797
     26 C          63.5500   82.9898   13.9803 C.ar    1  UNL1        0.0835
     27 C          63.5760   81.5433   13.5843 C.ar    1  UNL1        0.0741
     28 CL         63.9873   80.5003   14.5807 Cl      1  UNL1       -0.0807
     29 C          63.1906   81.1399   12.1919 C.ar    1  UNL1        0.0144
     30 C          62.7793   82.1829   11.1955 C.ar    1  UNL1        0.0200
     31 C          62.7533   83.6295   11.5915 C.ar    1  UNL1        0.0844
     32 N          63.1386   84.0329   12.9839 N.ar    1  UNL1       -0.2576
     33 C          63.1126   85.4795   13.3799 C.ar    1  UNL1        0.3416
     34 O          62.7013   86.5225   12.3834 O.2     1  UNL1       -0.2455
     35 C          66.0941   93.9959   10.8747 C.2     1  UNL1        0.2442
     36 N          65.1757   95.0482   10.3279 N.am    1  UNL1       -0.3253
     37 O          67.5423   93.9874   10.4835 O.2     1  UNL1       -0.2703
     38 H          64.2253   95.0537   10.5846 H       1  UNL1        0.1453
     39 H          65.5233   95.7334    9.7123 H       1  UNL1        0.1453
     40 C          59.7991   88.5504    8.7499 C.3     1  UNL1        0.1069
     41 C          59.7534   87.2823    9.5498 C.3     1  UNL1        0.0339
     42 C          59.8448   89.8185    7.9500 C.3     1  UNL1        0.0339
     43 O          58.7823   87.9886    7.8011 O.3     1  UNL1       -0.3827
     44 H          58.5353   87.0943    8.0842 H       1  UNL1        0.2107
@<TRIPOS>BOND
     1    15    16    1
     2    16    17   ar
     3    17     1    1
     4     1     2   ar
     5     2     3    1
     6     2     4   ar
     7     4     5   ar
     8     5    35    1
     9    35    36   am
    10    35    37    2
    11     5     6   ar
    12     6     7    2
    13     7     8    1
    14     8     9    2
    15     9    10    1
    16    10    40    1
    17    40    41    1
    18    40    42    1
    19    40    43    1
    20    10    11    2
    21    11    12    1
    22    12    13    1
    23    13    14    2
    24    17    18   ar
    25    18    19   ar
    26    19    20   ar
    27    20    21   ar
    28    21    22    1
    29    22    23   ar
    30    23    24    2
    31    23    25   ar
    32    25    26   ar
    33    26    27   ar
    34    27    28    1
    35    27    29   ar
    36    29    30   ar
    37    30    31   ar
    38    31    32   ar
    39    32    33   ar
    40    33    34    2
    41    21    16   ar
    42    33    22   ar
    43    14     1   ar
    44    32    26   ar
    45    14     6   ar
    46    13     8    1
    47    36    38    1
    48    36    39    1
    49    43    44    1
@<TRIPOS>MOLECULE
*****
 44 49 0 0 0
SMALL
GASTEIGER

@<TRIPOS>ATOM
      1 C          63.5858   90.3318   13.7506 C.ar    1  UNL1        0.0115
      2 C          63.2406   90.0044   15.1732 C.ar    1  UNL1        0.0579
      3 CL         62.2592   88.9105   15.4742 Cl      1  UNL1       -0.0822
      4 C          63.8766   90.7708   16.2948 C.ar    1  UNL1        0.0174
      5 C          64.8579   91.8646   15.9938 C.ar    1  UNL1        0.0716
      6 C          65.2031   92.1920   14.5713 C.ar    1  UNL1        0.0854
      7 N          66.1280   93.2093   13.9714 N.2     1  UNL1       -0.2455
      8 C          66.0636   93.0715   12.4792 C.2     1  UNL1        0.0774
      9 C          66.7587   93.8074   11.3723 C.2     1  UNL1        0.0164
     10 C          66.4891   93.4410    9.9430 C.2     1  UNL1       -0.0007
     11 C          65.5244   92.3386    9.6205 C.2     1  UNL1       -0.0233
     12 C          64.8292   91.6027   10.7274 C.3     1  UNL1        0.0536
     13 C          65.0988   91.9691   12.1567 C.2     1  UNL1        0.0013
     14 C          64.5670   91.4256   13.4497 C.ar    1  UNL1        0.0164
     15 C          63.9101   87.3534   13.5960 C.3     1  UNL1        0.0326
     16 C          63.1118   88.0761   12.5517 C.ar    1  UNL1       -0.0055
     17 C          62.9496   89.5653   12.6290 C.ar    1  UNL1       -0.0017
     18 C          62.1513   90.2880   11.5848 C.ar    1  UNL1       -0.0002
     19 C          61.5153   89.5215   10.4633 C.ar    1  UNL1        0.0015
     20 C          61.6775   88.0323   10.3860 C.ar    1  UNL1        0.0174
     21 C          62.4757   87.3096   11.4302 C.ar    1  UNL1        0.0671
     22 N          62.6380   85.8204   11.3529 N.ar    1  UNL1       -0.2272
     23 C          63.0018   85.1722   10.0500 C.ar    1  UNL1        0.2697
     24 O          63.2034   86.0133    8.8245 O.2     1  UNL1       -0.2664
     25 C          63.1640   83.6830    9.9727 C.ar    1  UNL1        0.0797
     26 C          62.9624   82.8420   11.1983 C.ar    1  UNL1        0.0835
     27 C          63.1246   81.3528   11.1210 C.ar    1  UNL1        0.0741
     28 CL         63.4884   80.7047    9.8181 Cl      1  UNL1       -0.0807
     29 C          62.9229   80.5118   12.3466 C.ar    1  UNL1        0.0144
     30 C          62.5591   81.1600   13.6495 C.ar    1  UNL1        0.0200
     31 C          62.3969   82.6492   13.7268 C.ar    1  UNL1        0.0844
     32 N          62.5985   83.4901   12.5011 N.ar    1  UNL1       -0.2576
     33 C          62.4363   84.9794   12.5784 C.ar    1  UNL1        0.3416
     34 O          62.0725   85.6275   13.8814 O.2     1  UNL1       -0.2455
     35 C          65.4940   92.6311   17.1154 C.2     1  UNL1        0.2442
     36 N          66.9155   93.0945   16.9956 N.am    1  UNL1       -0.3253
     37 O          64.7084   92.9341   18.3569 O.2     1  UNL1       -0.2703
     38 H          67.4310   92.8956   16.1808 H       1  UNL1        0.1453
     39 H          67.3329   93.5975   17.7318 H       1  UNL1        0.1453
     40 C          67.1843   94.1769    8.8361 C.3     1  UNL1        0.1069
     41 C          68.1584   93.0450    8.6952 C.3     1  UNL1        0.0339
     42 C          66.2102   95.3088    8.9770 C.3     1  UNL1        0.0339
     43 O          67.8794   94.9129    7.7292 O.3     1  UNL1       -0.3827
     44 H          68.6231   94.3814    7.4047 H       1  UNL1        0.2107
@<TRIPOS>BOND
     1    15    16    1
     2    16    17   ar
     3    17     1    1
     4     1     2   ar
     5     2     3    1
     6     2     4   ar
     7     4     5   ar
     8     5    35    1
     9    35    36   am
    10    35    37    2
    11     5     6   ar
    12     6     7    2
    13     7     8    1
    14     8     9    2
    15     9    10    1
    16    10    40    1
    17    40    41    1
    18    40    42    1
    19    40    43    1
    20    10    11    2
    21    11    12    1
    22    12    13    1
    23    13    14    2
    24    17    18   ar
    25    18    19   ar
    26    19    20   ar
    27    20    21   ar
    28    21    22    1
    29    22    23   ar
    30    23    24    2
    31    23    25   ar
    32    25    26   ar
    33    26    27   ar
    34    27    28    1
    35    27    29   ar
    36    29    30   ar
    37    30    31   ar
    38    31    32   ar
    39    32    33   ar
    40    33    34    2
    41    21    16   ar
    42    33    22   ar
    43    14     1   ar
    44    32    26   ar
    45    14     6   ar
    46    13     8    1
    47    36    38    1
    48    36    39    1
    49    43    44    1
@<TRIPOS>MOLECULE
*****
 44 49 0 0 0
SMALL
GASTEIGER

@<TRIPOS>ATOM
      1 C          62.4629   94.6987   -2.3563 C.ar    1  UNL1        0.0115
      2 C          63.7129   94.4530   -3.1481 C.ar    1  UNL1        0.0579
      3 CL         65.0487   94.4709   -2.4657 Cl      1  UNL1       -0.0822
      4 C          63.6273   94.1893   -4.6223 C.ar    1  UNL1        0.0174
      5 C          62.2917   94.1713   -5.3046 C.ar    1  UNL1        0.0716
      6 C          61.0416   94.4171   -4.5128 C.ar    1  UNL1        0.0854
      7 N          59.5953   94.4608   -4.9082 N.2     1  UNL1       -0.2455
      8 C          58.7871   94.7514   -3.6784 C.2     1  UNL1        0.0774
      9 C          57.3113   94.9098   -3.4615 C.2     1  UNL1        0.0164
     10 C          56.7824   95.2042   -2.0891 C.2     1  UNL1       -0.0007
     11 C          57.7292   95.3402   -0.9337 C.2     1  UNL1       -0.0233
     12 C          59.2049   95.1818   -1.1506 C.3     1  UNL1        0.0536
     13 C          59.7338   94.8874   -2.5230 C.2     1  UNL1        0.0013
     14 C          61.1272   94.6808   -3.0386 C.ar    1  UNL1        0.0164
     15 C          61.2968   92.7351   -0.4110 C.3     1  UNL1        0.0326
     16 C          61.9655   93.9806    0.0905 C.ar    1  UNL1       -0.0055
     17 C          62.5485   94.9624   -0.8821 C.ar    1  UNL1       -0.0017
     18 C          63.2173   96.2080   -0.3806 C.ar    1  UNL1       -0.0002
     19 C          63.3029   96.4717    1.0935 C.ar    1  UNL1        0.0015
     20 C          62.7198   95.4898    2.0662 C.ar    1  UNL1        0.0174
     21 C          62.0511   94.2443    1.5647 C.ar    1  UNL1        0.0671
     22 N          61.4681   93.2624    2.5373 N.ar    1  UNL1       -0.2272
     23 C          62.3488   92.2357    3.1854 C.ar    1  UNL1        0.2697
     24 O          63.8126   92.1908    2.8609 O.2     1  UNL1       -0.2664
     25 C          61.7658   91.2538    4.1581 C.ar    1  UNL1        0.0797
     26 C          60.3020   91.2987    4.4826 C.ar    1  UNL1        0.0835
     27 C          59.7190   90.3169    5.4552 C.ar    1  UNL1        0.0741
     28 CL         60.5997   89.2901    6.1033 Cl      1  UNL1       -0.0807
     29 C          58.2551   90.3618    5.7797 C.ar    1  UNL1        0.0144
     30 C          57.3744   91.3885    5.1316 C.ar    1  UNL1        0.0200
     31 C          57.9575   92.3704    4.1589 C.ar    1  UNL1        0.0844
     32 N          59.4213   92.3254    3.8345 N.ar    1  UNL1       -0.2576
     33 C          60.0043   93.3073    2.8618 C.ar    1  UNL1        0.3416
     34 O          59.1235   94.3341    2.2137 O.2     1  UNL1       -0.2455
     35 C          62.2061   93.9076   -6.7787 C.2     1  UNL1        0.2442
     36 N          61.0014   94.3555   -7.5520 N.am    1  UNL1       -0.3253
     37 O          63.3252   93.1960   -7.4796 O.2     1  UNL1       -0.2703
     38 H          60.2669   94.8225   -7.0920 H       1  UNL1        0.1453
     39 H          60.9452   94.1824   -8.5196 H       1  UNL1        0.1453
     40 C          55.3066   95.3626   -1.8722 C.3     1  UNL1        0.1069
     41 C          55.4581   96.8538   -1.9301 C.3     1  UNL1        0.0339
     42 C          55.1551   93.8714   -1.8142 C.3     1  UNL1        0.0339
     43 O          53.8309   95.5210   -1.6552 O.3     1  UNL1       -0.3827
     44 H          53.6051   96.4643   -1.6438 H       1  UNL1        0.2107
@<TRIPOS>BOND
     1    15    16    1
     2    16    17   ar
     3    17     1    1
     4     1     2   ar
     5     2     3    1
     6     2     4   ar
     7     4     5   ar
     8     5    35    1
     9    35    36   am
    10    35    37    2
    11     5     6   ar
    12     6     7    2
    13     7     8    1
    14     8     9    2
    15     9    10    1
    16    10    40    1
    17    40    41    1
    18    40    42    1
    19    40    43    1
    20    10    11    2
    21    11    12    1
    22    12    13    1
    23    13    14    2
    24    17    18   ar
    25    18    19   ar
    26    19    20   ar
    27    20    21   ar
    28    21    22    1
    29    22    23   ar
    30    23    24    2
    31    23    25   ar
    32    25    26   ar
    33    26    27   ar
    34    27    28    1
    35    27    29   ar
    36    29    30   ar
    37    30    31   ar
    38    31    32   ar
    39    32    33   ar
    40    33    34    2
    41    21    16   ar
    42    33    22   ar
    43    14     1   ar
    44    32    26   ar
    45    14     6   ar
    46    13     8    1
    47    36    38    1
    48    36    39    1
    49    43    44    1
