@<TRIPOS>MOLECULE
*****
 30 33 0 0 0
SMALL
GASTEIGER

@<TRIPOS>ATOM
      1 N          62.4112   87.4139   11.7075 N.ar    1  UNL1       -0.2644
      2 C          62.0947   88.0975   10.4103 C.ar    1  UNL1        0.2037
      3 N          62.6041   89.4840   10.1495 N.ar    1  UNL1       -0.2148
      4 C          63.4299   90.1870   11.1858 C.ar    1  UNL1        0.0888
      5 C          63.9393   91.5735   10.9249 C.ar    1  UNL1        0.0217
      6 C          64.7651   92.2764   11.9612 C.ar    1  UNL1        0.0312
      7 C          65.0816   91.5928   13.2583 C.ar    1  UNL1        0.1404
      8 F          65.9074   92.2958   14.2946 F       1  UNL1       -0.2042
      9 C          64.5722   90.2063   13.5192 C.ar    1  UNL1        0.0359
     10 C          63.7464   89.5034   12.4829 C.ar    1  UNL1        0.0762
     11 C          63.2370   88.1168   12.7437 C.ar    1  UNL1        0.2646
     12 O          63.5535   87.4332   14.0409 O.2     1  UNL1       -0.2668
     13 N          61.2689   87.3945    9.3740 N.pl3   1  UNL1       -0.2781
     14 C          59.8049   87.6967    9.2500 C.3     1  UNL1        0.0937
     15 C          58.9791   86.9938    8.2138 C.3     1  UNL1        0.0229
     16 C          59.6173   85.9885    7.3015 C.3     1  UNL1        0.0190
     17 C          61.0813   85.6862    7.4255 C.3     1  UNL1        0.0710
     18 N          61.7194   84.6810    6.5133 N.3     1  UNL1       -0.3208
     19 C          61.9070   86.3892    8.4618 C.3     1  UNL1        0.1089
     20 H          61.0165   84.3048    5.8770 H       1  UNL1        0.1189
     21 H          62.1167   83.9227    7.0678 H       1  UNL1        0.1189
     22 C          61.9018   86.0273   11.9683 C.3     1  UNL1        0.1391
     23 C          63.2118   83.9999   12.9293 C.ar    1  UNL1        0.0663
     24 C          64.1125   82.8186   12.7213 C.ar    1  UNL1        0.0100
     25 C          64.6037   82.4832   11.3443 C.ar    1  UNL1        0.0007
     26 C          64.1943   83.3293   10.1752 C.ar    1  UNL1       -0.0002
     27 C          63.2937   84.5106   10.3832 C.ar    1  UNL1       -0.0017
     28 C          62.8024   84.8459   11.7603 C.ar    1  UNL1        0.0102
     29 N          62.2293   84.6706   15.6834 N.1     1  UNL1       -0.1908
     30 C          62.7206   84.3352   14.3063 C.1     1  UNL1        0.1002
@<TRIPOS>BOND
     1    29    30    3
     2    30    23    1
     3    23    24   ar
     4    24    25   ar
     5    25    26   ar
     6    26    27   ar
     7    27    28   ar
     8    28    22    1
     9    22     1    1
    10     1     2   ar
    11     2    13    1
    12    13    14    1
    13    14    15    1
    14    15    16    1
    15    16    17    1
    16    17    18    1
    17    17    19    1
    18     2     3   ar
    19     3     4   ar
    20     4     5   ar
    21     5     6   ar
    22     6     7   ar
    23     7     8    1
    24     7     9   ar
    25     9    10   ar
    26    10    11   ar
    27    11    12    2
    28    28    23   ar
    29    11     1   ar
    30    19    13    1
    31    10     4   ar
    32    18    20    1
    33    18    21    1
@<TRIPOS>MOLECULE
*****
 30 33 0 0 0
SMALL
GASTEIGER

@<TRIPOS>ATOM
      1 N          63.6821   88.5044   13.0540 N.ar    1  UNL1       -0.2644
      2 C          63.6761   89.9840   12.8074 C.ar    1  UNL1        0.2037
      3 N          62.8095   90.5609   11.7275 N.ar    1  UNL1       -0.2148
      4 C          61.9489   89.6581   10.8941 C.ar    1  UNL1        0.0888
      5 C          61.0823   90.2349    9.8142 C.ar    1  UNL1        0.0217
      6 C          60.2217   89.3322    8.9809 C.ar    1  UNL1        0.0312
      7 C          60.2277   87.8526    9.2276 C.ar    1  UNL1        0.1404
      8 F          59.3671   86.9499    8.3942 F       1  UNL1       -0.2042
      9 C          61.0943   87.2758   10.3074 C.ar    1  UNL1        0.0359
     10 C          61.9549   88.1785   11.1407 C.ar    1  UNL1        0.0762
     11 C          62.8215   87.6017   12.2207 C.ar    1  UNL1        0.2646
     12 O          62.8275   86.1221   12.4673 O.2     1  UNL1       -0.2668
     13 N          64.5367   90.8868   13.6407 N.pl3   1  UNL1       -0.2781
     14 C          65.8540   91.3682   13.1088 C.3     1  UNL1        0.0937
     15 C          66.7146   92.2709   13.9422 C.3     1  UNL1        0.0229
     16 C          66.2579   92.6922   15.3074 C.3     1  UNL1        0.0190
     17 C          64.9406   92.2108   15.8393 C.3     1  UNL1        0.0710
     18 N          64.4839   92.6321   17.2046 N.3     1  UNL1       -0.3208
     19 C          64.0800   91.3081   15.0060 C.3     1  UNL1        0.1089
     20 H          65.1865   93.2399   17.6256 H       1  UNL1        0.1189
     21 H          64.3540   91.8065   17.7894 H       1  UNL1        0.1189
     22 C          64.5488   87.9276   14.1340 C.3     1  UNL1        0.1391
     23 C          63.9018   85.9896   15.7388 C.ar    1  UNL1        0.0663
     24 C          63.2859   85.5163   17.0220 C.ar    1  UNL1        0.0100
     25 C          62.7009   86.5078   17.9836 C.ar    1  UNL1        0.0007
     26 C          62.7319   87.9726   17.6620 C.ar    1  UNL1       -0.0002
     27 C          63.3478   88.4459   16.3788 C.ar    1  UNL1       -0.0017
     28 C          63.9328   87.4543   15.4172 C.ar    1  UNL1        0.0102
     29 N          65.0717   84.0066   13.8155 N.1     1  UNL1       -0.1908
     30 C          64.4868   84.9981   14.7771 C.1     1  UNL1        0.1002
@<TRIPOS>BOND
     1    29    30    3
     2    30    23    1
     3    23    24   ar
     4    24    25   ar
     5    25    26   ar
     6    26    27   ar
     7    27    28   ar
     8    28    22    1
     9    22     1    1
    10     1     2   ar
    11     2    13    1
    12    13    14    1
    13    14    15    1
    14    15    16    1
    15    16    17    1
    16    17    18    1
    17    17    19    1
    18     2     3   ar
    19     3     4   ar
    20     4     5   ar
    21     5     6   ar
    22     6     7   ar
    23     7     8    1
    24     7     9   ar
    25     9    10   ar
    26    10    11   ar
    27    11    12    2
    28    28    23   ar
    29    11     1   ar
    30    19    13    1
    31    10     4   ar
    32    18    20    1
    33    18    21    1
@<TRIPOS>MOLECULE
*****
 30 33 0 0 0
SMALL
GASTEIGER

@<TRIPOS>ATOM
      1 N          63.2127   89.9944   12.7412 N.ar    1  UNL1       -0.2644
      2 C          64.1622   89.8019   13.8864 C.ar    1  UNL1        0.2037
      3 N          65.3980   90.6462   13.9861 N.ar    1  UNL1       -0.2148
      4 C          65.6844   91.6830   12.9405 C.ar    1  UNL1        0.0888
      5 C          66.9202   92.5273   13.0402 C.ar    1  UNL1        0.0217
      6 C          67.2065   93.5640   11.9947 C.ar    1  UNL1        0.0312
      7 C          66.2569   93.7566   10.8496 C.ar    1  UNL1        0.1404
      8 F          66.5433   94.7934    9.8041 F       1  UNL1       -0.2042
      9 C          65.0211   92.9123   10.7499 C.ar    1  UNL1        0.0359
     10 C          64.7349   91.8755   11.7954 C.ar    1  UNL1        0.0762
     11 C          63.4990   91.0312   11.6958 C.ar    1  UNL1        0.2646
     12 O          62.5495   91.2237   10.5506 O.2     1  UNL1       -0.2668
     13 N          63.8759   88.7651   14.9319 N.pl3   1  UNL1       -0.2781
     14 C          63.1871   89.1550   16.2060 C.3     1  UNL1        0.0937
     15 C          62.9008   88.1182   17.2515 C.3     1  UNL1        0.0229
     16 C          63.3032   86.6914   17.0227 C.3     1  UNL1        0.0190
     17 C          63.9920   86.3014   15.7486 C.3     1  UNL1        0.0710
     18 N          64.3944   84.8746   15.5199 N.3     1  UNL1       -0.3208
     19 C          64.2783   87.3383   14.7032 C.3     1  UNL1        0.1089
     20 H          64.1247   84.3118   16.3266 H       1  UNL1        0.1189
     21 H          65.4050   84.8228   15.3917 H       1  UNL1        0.1189
     22 C          61.9768   89.1501   12.6416 C.3     1  UNL1        0.1391
     23 C          60.4717   88.9220   10.5363 C.ar    1  UNL1        0.0663
     24 C          60.1370   88.2316    9.2473 C.ar    1  UNL1        0.0100
     25 C          60.9726   87.0791    8.7747 C.ar    1  UNL1        0.0007
     26 C          62.1430   86.6169    9.5911 C.ar    1  UNL1       -0.0002
     27 C          62.4778   87.3072   10.8801 C.ar    1  UNL1       -0.0017
     28 C          61.6421   88.4598   11.3526 C.ar    1  UNL1        0.0102
     29 N          58.8004   91.2271   11.4814 N.1     1  UNL1       -0.1908
     30 C          59.6361   90.0745   11.0088 C.1     1  UNL1        0.1002
@<TRIPOS>BOND
     1    29    30    3
     2    30    23    1
     3    23    24   ar
     4    24    25   ar
     5    25    26   ar
     6    26    27   ar
     7    27    28   ar
     8    28    22    1
     9    22     1    1
    10     1     2   ar
    11     2    13    1
    12    13    14    1
    13    14    15    1
    14    15    16    1
    15    16    17    1
    16    17    18    1
    17    17    19    1
    18     2     3   ar
    19     3     4   ar
    20     4     5   ar
    21     5     6   ar
    22     6     7   ar
    23     7     8    1
    24     7     9   ar
    25     9    10   ar
    26    10    11   ar
    27    11    12    2
    28    28    23   ar
    29    11     1   ar
    30    19    13    1
    31    10     4   ar
    32    18    20    1
    33    18    21    1
@<TRIPOS>MOLECULE
*****
 30 33 0 0 0
SMALL
GASTEIGER

@<TRIPOS>ATOM
      1 N          63.8841   89.6070   12.9411 N.ar    1  UNL1       -0.2644
      2 C          64.3243   89.5785   14.3747 C.ar    1  UNL1        0.2037
      3 N          65.1371   90.7091   14.9323 N.ar    1  UNL1       -0.2148
      4 C          65.5097   91.8683   14.0562 C.ar    1  UNL1        0.0888
      5 C          66.3225   92.9990   14.6138 C.ar    1  UNL1        0.0217
      6 C          66.6951   94.1581   13.7377 C.ar    1  UNL1        0.0312
      7 C          66.2548   94.1866   12.3040 C.ar    1  UNL1        0.1404
      8 F          66.6274   95.3458   11.4280 F       1  UNL1       -0.2042
      9 C          65.4420   93.0560   11.7465 C.ar    1  UNL1        0.0359
     10 C          65.0695   91.8968   12.6225 C.ar    1  UNL1        0.0762
     11 C          64.2566   90.7661   12.0650 C.ar    1  UNL1        0.2646
     12 O          63.8164   90.7946   10.6313 O.2     1  UNL1       -0.2668
     13 N          63.9517   88.4192   15.2508 N.pl3   1  UNL1       -0.2781
     14 C          63.1486   88.6485   16.4967 C.3     1  UNL1        0.0937
     15 C          62.7761   87.4893   17.3727 C.3     1  UNL1        0.0229
     16 C          63.2067   86.1009   17.0028 C.3     1  UNL1        0.0190
     17 C          64.0098   85.8716   15.7569 C.3     1  UNL1        0.0710
     18 N          64.4404   84.4832   15.3870 N.3     1  UNL1       -0.3208
     19 C          64.3823   87.0308   14.8809 C.3     1  UNL1        0.1089
     20 H          64.1028   83.8242   16.0886 H       1  UNL1        0.1189
     21 H          65.4587   84.4429   15.3448 H       1  UNL1        0.1189
     22 C          63.0713   88.4762   12.3835 C.3     1  UNL1        0.1391
     23 C          61.5169   87.7238   10.4424 C.ar    1  UNL1        0.0663
     24 C          60.3843   88.0074    9.5007 C.ar    1  UNL1        0.0100
     25 C          59.6735   89.3270    9.5584 C.ar    1  UNL1        0.0007
     26 C          60.0952   90.3631   10.5578 C.ar    1  UNL1       -0.0002
     27 C          61.2278   90.0795   11.4995 C.ar    1  UNL1       -0.0017
     28 C          61.9387   88.7598   11.4418 C.ar    1  UNL1        0.0102
     29 N          62.9387   85.0847   10.3269 N.1     1  UNL1       -0.1908
     30 C          62.2278   86.4043   10.3847 C.1     1  UNL1        0.1002
@<TRIPOS>BOND
     1    29    30    3
     2    30    23    1
     3    23    24   ar
     4    24    25   ar
     5    25    26   ar
     6    26    27   ar
     7    27    28   ar
     8    28    22    1
     9    22     1    1
    10     1     2   ar
    11     2    13    1
    12    13    14    1
    13    14    15    1
    14    15    16    1
    15    16    17    1
    16    17    18    1
    17    17    19    1
    18     2     3   ar
    19     3     4   ar
    20     4     5   ar
    21     5     6   ar
    22     6     7   ar
    23     7     8    1
    24     7     9   ar
    25     9    10   ar
    26    10    11   ar
    27    11    12    2
    28    28    23   ar
    29    11     1   ar
    30    19    13    1
    31    10     4   ar
    32    18    20    1
    33    18    21    1
@<TRIPOS>MOLECULE
*****
 30 33 0 0 0
SMALL
GASTEIGER

@<TRIPOS>ATOM
      1 N          63.8046   89.1827   12.8960 N.ar    1  UNL1       -0.2644
      2 C          63.8466   90.5571   12.2965 C.ar    1  UNL1        0.2037
      3 N          62.9879   90.8849   11.1112 N.ar    1  UNL1       -0.2148
      4 C          62.0871   89.8384   10.5252 C.ar    1  UNL1        0.0888
      5 C          61.2284   90.1662    9.3399 C.ar    1  UNL1        0.0217
      6 C          60.3276   89.1197    8.7540 C.ar    1  UNL1        0.0312
      7 C          60.2855   87.7453    9.3534 C.ar    1  UNL1        0.1404
      8 F          59.3847   86.6987    8.7675 F       1  UNL1       -0.2042
      9 C          61.1443   87.4175   10.5388 C.ar    1  UNL1        0.0359
     10 C          62.0450   88.4640   11.1247 C.ar    1  UNL1        0.0762
     11 C          62.9038   88.1362   12.3101 C.ar    1  UNL1        0.2646
     12 O          62.8618   86.7618   12.9095 O.2     1  UNL1       -0.2668
     13 N          64.7475   91.6037   12.8825 N.pl3   1  UNL1       -0.2781
     14 C          65.3911   92.6238   11.9909 C.3     1  UNL1        0.0937
     15 C          66.2919   93.6703   12.5769 C.3     1  UNL1        0.0229
     16 C          66.5490   93.6966   14.0545 C.3     1  UNL1        0.0190
     17 C          65.9054   92.6765   14.9460 C.3     1  UNL1        0.0710
     18 N          66.1625   92.7028   16.4236 N.3     1  UNL1       -0.3208
     19 C          65.0046   91.6300   14.3601 C.3     1  UNL1        0.1089
     20 H          66.7925   93.4737   16.6454 H       1  UNL1        0.1189
     21 H          66.5893   91.8218   16.7102 H       1  UNL1        0.1189
     22 C          64.6634   88.8549   14.0814 C.3     1  UNL1        0.1391
     23 C          63.4592   88.5172   16.3586 C.ar    1  UNL1        0.0663
     24 C          62.9407   87.6059   17.4313 C.ar    1  UNL1        0.0100
     25 C          63.1077   86.1211   17.2995 C.ar    1  UNL1        0.0007
     26 C          63.7934   85.5475   16.0949 C.ar    1  UNL1       -0.0002
     27 C          64.3119   86.4588   15.0222 C.ar    1  UNL1       -0.0017
     28 C          64.1448   87.9436   15.1541 C.ar    1  UNL1        0.0102
     29 N          63.1251   91.4868   16.6223 N.1     1  UNL1       -0.1908
     30 C          63.2921   90.0020   16.4904 C.1     1  UNL1        0.1002
@<TRIPOS>BOND
     1    29    30    3
     2    30    23    1
     3    23    24   ar
     4    24    25   ar
     5    25    26   ar
     6    26    27   ar
     7    27    28   ar
     8    28    22    1
     9    22     1    1
    10     1     2   ar
    11     2    13    1
    12    13    14    1
    13    14    15    1
    14    15    16    1
    15    16    17    1
    16    17    18    1
    17    17    19    1
    18     2     3   ar
    19     3     4   ar
    20     4     5   ar
    21     5     6   ar
    22     6     7   ar
    23     7     8    1
    24     7     9   ar
    25     9    10   ar
    26    10    11   ar
    27    11    12    2
    28    28    23   ar
    29    11     1   ar
    30    19    13    1
    31    10     4   ar
    32    18    20    1
    33    18    21    1
@<TRIPOS>MOLECULE
*****
 30 33 0 0 0
SMALL
GASTEIGER

@<TRIPOS>ATOM
      1 N          62.2129   86.8089   11.7003 N.ar    1  UNL1       -0.2644
      2 C          62.8906   86.1540   12.8673 C.ar    1  UNL1        0.2037
      3 N          63.7806   86.9596   13.7666 N.ar    1  UNL1       -0.2148
      4 C          63.9930   88.4202   13.4990 C.ar    1  UNL1        0.0888
      5 C          64.8830   89.2258   14.3983 C.ar    1  UNL1        0.0217
      6 C          65.0953   90.6863   14.1307 C.ar    1  UNL1        0.0312
      7 C          64.4176   91.3413   12.9637 C.ar    1  UNL1        0.1404
      8 F          64.6300   92.8019   12.6961 F       1  UNL1       -0.2042
      9 C          63.5276   90.5357   12.0644 C.ar    1  UNL1        0.0359
     10 C          63.3153   89.0751   12.3321 C.ar    1  UNL1        0.0762
     11 C          62.4252   88.2695   11.4327 C.ar    1  UNL1        0.2646
     12 O          61.7475   88.9244   10.2658 O.2     1  UNL1       -0.2668
     13 N          62.6783   84.6933   13.1349 N.pl3   1  UNL1       -0.2781
     14 C          62.1974   84.2397   14.4813 C.3     1  UNL1        0.0937
     15 C          61.9850   82.7791   14.7488 C.3     1  UNL1        0.0229
     16 C          62.2536   81.7722   13.6699 C.3     1  UNL1        0.0190
     17 C          62.7345   82.2258   12.3235 C.3     1  UNL1        0.0710
     18 N          63.0031   81.2189   11.2446 N.3     1  UNL1       -0.3208
     19 C          62.9468   83.6864   12.0560 C.3     1  UNL1        0.1089
     20 H          62.8073   80.2821   11.5975 H       1  UNL1        0.1189
     21 H          63.9809   81.2778   10.9604 H       1  UNL1        0.1189
     22 C          61.3228   86.0032   10.8010 C.3     1  UNL1        0.1391
     23 C          60.9921   85.8608    8.2280 C.ar    1  UNL1        0.0663
     24 C          61.4823   85.4309    6.8771 C.ar    1  UNL1        0.0100
     25 C          62.7933   84.7135    6.7483 C.ar    1  UNL1        0.0007
     26 C          63.6142   84.4260    7.9705 C.ar    1  UNL1       -0.0002
     27 C          63.1241   84.8559    9.3214 C.ar    1  UNL1       -0.0017
     28 C          61.8130   85.5733    9.4501 C.ar    1  UNL1        0.0102
     29 N          58.3701   87.2956    8.4856 N.1     1  UNL1       -0.1908
     30 C          59.6812   86.5781    8.3568 C.1     1  UNL1        0.1002
@<TRIPOS>BOND
     1    29    30    3
     2    30    23    1
     3    23    24   ar
     4    24    25   ar
     5    25    26   ar
     6    26    27   ar
     7    27    28   ar
     8    28    22    1
     9    22     1    1
    10     1     2   ar
    11     2    13    1
    12    13    14    1
    13    14    15    1
    14    15    16    1
    15    16    17    1
    16    17    18    1
    17    17    19    1
    18     2     3   ar
    19     3     4   ar
    20     4     5   ar
    21     5     6   ar
    22     6     7   ar
    23     7     8    1
    24     7     9   ar
    25     9    10   ar
    26    10    11   ar
    27    11    12    2
    28    28    23   ar
    29    11     1   ar
    30    19    13    1
    31    10     4   ar
    32    18    20    1
    33    18    21    1
@<TRIPOS>MOLECULE
*****
 30 33 0 0 0
SMALL
GASTEIGER

@<TRIPOS>ATOM
      1 N          62.8691   86.7709   11.6949 N.ar    1  UNL1       -0.2644
      2 C          63.4405   87.4143   12.9235 C.ar    1  UNL1        0.2037
      3 N          63.7338   86.5838   14.1377 N.ar    1  UNL1       -0.2148
      4 C          63.4557   85.1098   14.1232 C.ar    1  UNL1        0.0888
      5 C          63.7490   84.2793   15.3373 C.ar    1  UNL1        0.0217
      6 C          63.4709   82.8054   15.3228 C.ar    1  UNL1        0.0312
      7 C          62.8996   82.1620   14.0942 C.ar    1  UNL1        0.1404
      8 F          62.6215   80.6881   14.0797 F       1  UNL1       -0.2042
      9 C          62.6063   82.9925   12.8800 C.ar    1  UNL1        0.0359
     10 C          62.8843   84.4664   12.8945 C.ar    1  UNL1        0.0762
     11 C          62.5911   85.2970   11.6803 C.ar    1  UNL1        0.2646
     12 O          62.0197   84.6536   10.4517 O.2     1  UNL1       -0.2668
     13 N          63.7186   88.8883   12.9380 N.pl3   1  UNL1       -0.2781
     14 C          63.2464   89.7518   11.8060 C.3     1  UNL1        0.0937
     15 C          63.5244   91.2256   11.8205 C.3     1  UNL1        0.0229
     16 C          64.2747   91.8361   12.9670 C.3     1  UNL1        0.0190
     17 C          64.7469   90.9726   14.0990 C.3     1  UNL1        0.0710
     18 N          65.4971   91.5831   15.2455 N.3     1  UNL1       -0.3208
     19 C          64.4688   89.4987   14.0845 C.3     1  UNL1        0.1089
     20 H          65.5954   92.5866   15.0917 H       1  UNL1        0.1189
     21 H          66.4216   91.1573   15.3121 H       1  UNL1        0.1189
     22 C          62.5759   87.6015   10.4807 C.3     1  UNL1        0.1391
     23 C          60.0463   87.6722    9.8922 C.ar    1  UNL1        0.0663
     24 C          58.9131   87.2981    8.9834 C.ar    1  UNL1        0.0100
     25 C          59.1760   86.4793    7.7545 C.ar    1  UNL1        0.0007
     26 C          60.5724   86.0345    7.4343 C.ar    1  UNL1       -0.0002
     27 C          61.7056   86.4085    8.3430 C.ar    1  UNL1       -0.0017
     28 C          61.4426   87.2274    9.5720 C.ar    1  UNL1        0.0102
     29 N          59.5203   89.3100   12.3500 N.1     1  UNL1       -0.1908
     30 C          59.7833   88.4911   11.1211 C.1     1  UNL1        0.1002
@<TRIPOS>BOND
     1    29    30    3
     2    30    23    1
     3    23    24   ar
     4    24    25   ar
     5    25    26   ar
     6    26    27   ar
     7    27    28   ar
     8    28    22    1
     9    22     1    1
    10     1     2   ar
    11     2    13    1
    12    13    14    1
    13    14    15    1
    14    15    16    1
    15    16    17    1
    16    17    18    1
    17    17    19    1
    18     2     3   ar
    19     3     4   ar
    20     4     5   ar
    21     5     6   ar
    22     6     7   ar
    23     7     8    1
    24     7     9   ar
    25     9    10   ar
    26    10    11   ar
    27    11    12    2
    28    28    23   ar
    29    11     1   ar
    30    19    13    1
    31    10     4   ar
    32    18    20    1
    33    18    21    1
@<TRIPOS>MOLECULE
*****
 30 33 0 0 0
SMALL
GASTEIGER

@<TRIPOS>ATOM
      1 N          62.8707   87.2654   12.3767 N.ar    1  UNL1       -0.2644
      2 C          62.8083   88.7603   12.2702 C.ar    1  UNL1        0.2037
      3 N          62.0308   89.4011   11.1590 N.ar    1  UNL1       -0.2148
      4 C          61.3158   88.5471   10.1542 C.ar    1  UNL1        0.0888
      5 C          60.5383   89.1879    9.0430 C.ar    1  UNL1        0.0217
      6 C          59.8234   88.3338    8.0384 C.ar    1  UNL1        0.0312
      7 C          59.8858   86.8389    8.1450 C.ar    1  UNL1        0.1404
      8 F          59.1708   85.9849    7.1402 F       1  UNL1       -0.2042
      9 C          60.6633   86.1981    9.2562 C.ar    1  UNL1        0.0359
     10 C          61.3783   87.0521   10.2608 C.ar    1  UNL1        0.0762
     11 C          62.1558   86.4113   11.3721 C.ar    1  UNL1        0.2646
     12 O          62.2183   84.9164   11.4787 O.2     1  UNL1       -0.2668
     13 N          63.5233   89.6143   13.2749 N.pl3   1  UNL1       -0.2781
     14 C          64.7019   90.4408   12.8533 C.3     1  UNL1        0.0937
     15 C          65.4169   91.2948   13.8580 C.3     1  UNL1        0.0229
     16 C          64.9532   91.3223   15.2843 C.3     1  UNL1        0.0190
     17 C          63.7745   90.4959   15.7059 C.3     1  UNL1        0.0710
     18 N          63.3108   90.5235   17.1321 N.3     1  UNL1       -0.3208
     19 C          63.0596   89.6419   14.7012 C.3     1  UNL1        0.1089
     20 H          63.9067   91.1518   17.6712 H       1  UNL1        0.1189
     21 H          63.3640   89.5838   17.5252 H       1  UNL1        0.1189
     22 C          63.6483   86.6245   13.4880 C.3     1  UNL1        0.1391
     23 C          62.9938   84.4807   14.8016 C.ar    1  UNL1        0.0663
     24 C          63.0098   82.9873   14.9415 C.ar    1  UNL1        0.0100
     25 C          63.6963   82.1444   13.9079 C.ar    1  UNL1        0.0007
     26 C          64.3667   82.7949   12.7343 C.ar    1  UNL1       -0.0002
     27 C          64.3507   84.2883   12.5943 C.ar    1  UNL1       -0.0017
     28 C          63.6643   85.1312   13.6280 C.ar    1  UNL1        0.0102
     29 N          61.6210   86.1664   16.8689 N.1     1  UNL1       -0.1908
     30 C          62.3074   85.3235   15.8352 C.1     1  UNL1        0.1002
@<TRIPOS>BOND
     1    29    30    3
     2    30    23    1
     3    23    24   ar
     4    24    25   ar
     5    25    26   ar
     6    26    27   ar
     7    27    28   ar
     8    28    22    1
     9    22     1    1
    10     1     2   ar
    11     2    13    1
    12    13    14    1
    13    14    15    1
    14    15    16    1
    15    16    17    1
    16    17    18    1
    17    17    19    1
    18     2     3   ar
    19     3     4   ar
    20     4     5   ar
    21     5     6   ar
    22     6     7   ar
    23     7     8    1
    24     7     9   ar
    25     9    10   ar
    26    10    11   ar
    27    11    12    2
    28    28    23   ar
    29    11     1   ar
    30    19    13    1
    31    10     4   ar
    32    18    20    1
    33    18    21    1
@<TRIPOS>MOLECULE
*****
 30 33 0 0 0
SMALL
GASTEIGER

@<TRIPOS>ATOM
      1 N          63.1455   85.0803   12.7048 N.ar    1  UNL1       -0.2644
      2 C          62.9996   84.6912   14.1461 C.ar    1  UNL1        0.2037
      3 N          62.8419   83.2474   14.5209 N.ar    1  UNL1       -0.2148
      4 C          62.8301   82.1926   13.4545 C.ar    1  UNL1        0.0888
      5 C          62.6725   80.7488   13.8293 C.ar    1  UNL1        0.0217
      6 C          62.6607   79.6941   12.7628 C.ar    1  UNL1        0.0312
      7 C          62.8066   80.0831   11.3216 C.ar    1  UNL1        0.1404
      8 F          62.7949   79.0283   10.2551 F       1  UNL1       -0.2042
      9 C          62.9643   81.5269   10.9467 C.ar    1  UNL1        0.0359
     10 C          62.9760   82.5816   12.0132 C.ar    1  UNL1        0.0762
     11 C          63.1337   84.0255   11.6383 C.ar    1  UNL1        0.2646
     12 O          63.2796   84.4146   10.1970 O.2     1  UNL1       -0.2668
     13 N          63.0113   85.7460   15.2126 N.pl3   1  UNL1       -0.2781
     14 C          62.4918   85.4316   16.5841 C.3     1  UNL1        0.0937
     15 C          62.5036   86.4864   17.6505 C.3     1  UNL1        0.0229
     16 C          63.0349   87.8556   17.3453 C.3     1  UNL1        0.0190
     17 C          63.5543   88.1700   15.9738 C.3     1  UNL1        0.0710
     18 N          64.0856   89.5391   15.6686 N.3     1  UNL1       -0.3208
     19 C          63.5426   87.1152   14.9074 C.3     1  UNL1        0.1089
     20 H          64.0181   90.1236   16.5018 H       1  UNL1        0.1189
     21 H          63.5383   89.9561   14.9156 H       1  UNL1        0.1189
     22 C          63.3031   86.5241   12.3300 C.3     1  UNL1        0.1391
     23 C          62.2416   88.6846   11.3525 C.ar    1  UNL1        0.0663
     24 C          61.2176   89.3494   10.4811 C.ar    1  UNL1        0.0100
     25 C          60.2310   88.5184    9.7156 C.ar    1  UNL1        0.0007
     26 C          60.2684   87.0225    9.8215 C.ar    1  UNL1       -0.0002
     27 C          61.2925   86.3578   10.6930 C.ar    1  UNL1       -0.0017
     28 C          62.2791   87.1889   11.4585 C.ar    1  UNL1        0.0102
     29 N          64.2148   90.3467   12.8836 N.1     1  UNL1       -0.1908
     30 C          63.2282   89.5156   12.1180 C.1     1  UNL1        0.1002
@<TRIPOS>BOND
     1    29    30    3
     2    30    23    1
     3    23    24   ar
     4    24    25   ar
     5    25    26   ar
     6    26    27   ar
     7    27    28   ar
     8    28    22    1
     9    22     1    1
    10     1     2   ar
    11     2    13    1
    12    13    14    1
    13    14    15    1
    14    15    16    1
    15    16    17    1
    16    17    18    1
    17    17    19    1
    18     2     3   ar
    19     3     4   ar
    20     4     5   ar
    21     5     6   ar
    22     6     7   ar
    23     7     8    1
    24     7     9   ar
    25     9    10   ar
    26    10    11   ar
    27    11    12    2
    28    28    23   ar
    29    11     1   ar
    30    19    13    1
    31    10     4   ar
    32    18    20    1
    33    18    21    1
