@<TRIPOS>MOLECULE
*****
 28 31 0 0 0
SMALL
GASTEIGER

@<TRIPOS>ATOM
      1 N          63.7172   87.8625   13.2518 N.ar    1  UNL1       -0.2064
      2 C          64.6878   88.5625   14.1561 C.ar    1  UNL1        0.1144
      3 C          64.8097   89.9842   13.6936 C.ar    1  UNL1        0.0686
      4 C          63.9144   90.1629   12.5034 C.ar    1  UNL1        0.0324
      5 C          63.6268   91.3501   11.6331 C.ar    1  UNL1        0.0028
      6 C          62.6639   91.2261   10.4897 C.ar    1  UNL1        0.0001
      7 C          61.9887   89.9148   10.2165 C.ar    1  UNL1        0.0015
      8 C          62.2764   88.7275   11.0869 C.ar    1  UNL1        0.0190
      9 C          63.2392   88.8515   12.2303 C.ar    1  UNL1        0.0838
     10 N          65.6749   91.0416   14.3127 N.pl3   1  UNL1       -0.3034
     11 C          66.9345   91.4777   13.6246 C.3     1  UNL1        0.1082
     12 C          67.7997   92.5352   14.2436 C.3     1  UNL1        0.0938
     13 N          67.4055   93.1566   15.5506 N.3     1  UNL1       -0.2686
     14 C          68.2707   94.2140   16.1696 C.3     1  UNL1        0.0897
     15 C          66.1460   92.7205   16.2387 C.3     1  UNL1        0.0938
     16 C          65.2807   91.6630   15.6197 C.3     1  UNL1        0.1082
     17 S          63.2982   86.4256   13.3513 S.O2    1  UNL1        0.0860
     18 O          63.8139   86.3727   14.7588 O.2     1  UNL1       -0.1476
     19 O          62.7824   86.4786   11.9437 O.2     1  UNL1       -0.1476
     20 C          62.0409   82.1151   13.6498 C.ar    1  UNL1       -0.0224
     21 C          62.1255   82.9591   14.8869 C.ar    1  UNL1       -0.0029
     22 C          62.5446   84.3959   14.7874 C.ar    1  UNL1        0.0201
     23 C          62.8791   84.9888   13.4507 C.ar    1  UNL1        0.1277
     24 C          62.7944   84.1448   12.2136 C.ar    1  UNL1        0.0201
     25 C          62.3754   82.7081   12.3131 C.ar    1  UNL1       -0.0029
     26 C          62.5942   79.5882   13.4083 C.3     1  UNL1        0.0047
     27 C          61.6218   80.6784   13.7492 C.3     1  UNL1        0.0224
     28 C          60.2305   80.3315   14.1895 C.3     1  UNL1        0.0047
@<TRIPOS>BOND
     1    26    27    1
     2    27    28    1
     3    27    20    1
     4    20    21   ar
     5    21    22   ar
     6    22    23   ar
     7    23    17    1
     8    17    18    2
     9    17    19    2
    10    17     1    1
    11     1     2   ar
    12     2     3   ar
    13     3    10    1
    14    10    11    1
    15    11    12    1
    16    12    13    1
    17    13    14    1
    18    13    15    1
    19    15    16    1
    20     3     4   ar
    21     4     5   ar
    22     5     6   ar
    23     6     7   ar
    24     7     8   ar
    25     8     9   ar
    26    23    24   ar
    27    24    25   ar
    28    25    20   ar
    29     9     1   ar
    30    16    10    1
    31     9     4   ar
@<TRIPOS>MOLECULE
*****
 28 31 0 0 0
SMALL
GASTEIGER

@<TRIPOS>ATOM
      1 N          62.8684   87.0914   12.1182 N.ar    1  UNL1       -0.2064
      2 C          63.9166   87.9260   12.7925 C.ar    1  UNL1        0.1144
      3 C          63.5728   89.3693   12.5714 C.ar    1  UNL1        0.0686
      4 C          62.3122   89.4267   11.7606 C.ar    1  UNL1        0.0324
      5 C          61.5045   90.5789   11.2411 C.ar    1  UNL1        0.0028
      6 C          60.2614   90.3234   10.4416 C.ar    1  UNL1        0.0001
      7 C          59.8260   88.9155   10.1615 C.ar    1  UNL1        0.0015
      8 C          60.6337   87.7633   10.6809 C.ar    1  UNL1        0.0190
      9 C          61.8768   88.0188   11.4805 C.ar    1  UNL1        0.0838
     10 N          64.3528   90.5482   13.0732 N.pl3   1  UNL1       -0.3034
     11 C          64.7354   91.6506   12.1305 C.3     1  UNL1        0.1082
     12 C          65.5154   92.8296   12.6322 C.3     1  UNL1        0.0938
     13 N          65.9128   92.9062   14.0766 N.3     1  UNL1       -0.2686
     14 C          66.6927   94.0852   14.5783 C.3     1  UNL1        0.0897
     15 C          65.5302   91.8039   15.0192 C.3     1  UNL1        0.0938
     16 C          64.7502   90.6249   14.5174 C.3     1  UNL1        0.1082
     17 S          62.8201   85.5925   12.0871 S.O2    1  UNL1        0.0860
     18 O          62.5427   85.6320   10.6136 O.2     1  UNL1       -0.1476
     19 O          63.0976   85.5530   13.5607 O.2     1  UNL1       -0.1476
     20 C          62.6754   81.0958   11.9943 C.ar    1  UNL1       -0.0224
     21 C          62.2206   81.8357   13.2172 C.ar    1  UNL1       -0.0029
     22 C          62.2688   83.3346   13.2481 C.ar    1  UNL1        0.0201
     23 C          62.7719   84.0936   12.0561 C.ar    1  UNL1        0.1277
     24 C          63.2268   83.3536   10.8332 C.ar    1  UNL1        0.0201
     25 C          63.1786   81.8548   10.8023 C.ar    1  UNL1       -0.0029
     26 C          62.8068   78.8675   10.6649 C.3     1  UNL1        0.0047
     27 C          62.6273   79.5969   11.9633 C.3     1  UNL1        0.0224
     28 C          62.3996   78.8273   13.2305 C.3     1  UNL1        0.0047
@<TRIPOS>BOND
     1    26    27    1
     2    27    28    1
     3    27    20    1
     4    20    21   ar
     5    21    22   ar
     6    22    23   ar
     7    23    17    1
     8    17    18    2
     9    17    19    2
    10    17     1    1
    11     1     2   ar
    12     2     3   ar
    13     3    10    1
    14    10    11    1
    15    11    12    1
    16    12    13    1
    17    13    14    1
    18    13    15    1
    19    15    16    1
    20     3     4   ar
    21     4     5   ar
    22     5     6   ar
    23     6     7   ar
    24     7     8   ar
    25     8     9   ar
    26    23    24   ar
    27    24    25   ar
    28    25    20   ar
    29     9     1   ar
    30    16    10    1
    31     9     4   ar
@<TRIPOS>MOLECULE
*****
 28 31 0 0 0
SMALL
GASTEIGER

@<TRIPOS>ATOM
      1 N          63.6692   86.1296   13.9522 N.ar    1  UNL1       -0.2064
      2 C          64.2275   87.3470   13.2767 C.ar    1  UNL1        0.1144
      3 C          64.2283   88.4696   14.2716 C.ar    1  UNL1        0.0686
      4 C          63.6706   87.9460   15.5619 C.ar    1  UNL1        0.0324
      5 C          63.4328   88.5993   16.8910 C.ar    1  UNL1        0.0028
      6 C          62.8495   87.8064   18.0227 C.ar    1  UNL1        0.0001
      7 C          62.5039   86.3601   17.8253 C.ar    1  UNL1        0.0015
      8 C          62.7417   85.7068   16.4962 C.ar    1  UNL1        0.0190
      9 C          63.3251   86.4998   15.3645 C.ar    1  UNL1        0.0838
     10 N          64.7035   89.8700   14.0203 N.pl3   1  UNL1       -0.3034
     11 C          65.7064   90.4985   14.9419 C.3     1  UNL1        0.1082
     12 C          66.1815   91.8989   14.6906 C.3     1  UNL1        0.0938
     13 N          65.6539   92.6708   13.5178 N.3     1  UNL1       -0.2686
     14 C          66.1290   94.0712   13.2664 C.3     1  UNL1        0.0897
     15 C          64.6510   92.0423   12.5962 C.3     1  UNL1        0.0938
     16 C          64.1759   90.6419   12.8475 C.3     1  UNL1        0.1082
     17 S          63.4871   84.7790   13.3255 S.O2    1  UNL1        0.0860
     18 O          64.7348   84.2960   14.0035 O.2     1  UNL1       -0.1476
     19 O          62.2393   85.2620   12.6474 O.2     1  UNL1       -0.1476
     20 C          62.9405   80.7274   11.4449 C.ar    1  UNL1       -0.0224
     21 C          63.5473   81.8467   10.6518 C.ar    1  UNL1       -0.0029
     22 C          63.7295   83.1972   11.2787 C.ar    1  UNL1        0.0201
     23 C          63.3048   83.4284   12.6986 C.ar    1  UNL1        0.1277
     24 C          62.6980   82.3092   13.4917 C.ar    1  UNL1        0.0201
     25 C          62.5158   80.9587   12.8649 C.ar    1  UNL1       -0.0029
     26 C          62.5275   78.1735   11.6834 C.3     1  UNL1        0.0047
     27 C          62.7582   79.3770   10.8181 C.3     1  UNL1        0.0224
     28 C          62.8066   79.2297    9.3262 C.3     1  UNL1        0.0047
@<TRIPOS>BOND
     1    26    27    1
     2    27    28    1
     3    27    20    1
     4    20    21   ar
     5    21    22   ar
     6    22    23   ar
     7    23    17    1
     8    17    18    2
     9    17    19    2
    10    17     1    1
    11     1     2   ar
    12     2     3   ar
    13     3    10    1
    14    10    11    1
    15    11    12    1
    16    12    13    1
    17    13    14    1
    18    13    15    1
    19    15    16    1
    20     3     4   ar
    21     4     5   ar
    22     5     6   ar
    23     6     7   ar
    24     7     8   ar
    25     8     9   ar
    26    23    24   ar
    27    24    25   ar
    28    25    20   ar
    29     9     1   ar
    30    16    10    1
    31     9     4   ar
@<TRIPOS>MOLECULE
*****
 28 31 0 0 0
SMALL
GASTEIGER

@<TRIPOS>ATOM
      1 N          64.0282   88.2544   14.0823 N.ar    1  UNL1       -0.2064
      2 C          63.9952   86.9350   13.3696 C.ar    1  UNL1        0.1144
      3 C          63.5342   85.8928   14.3449 C.ar    1  UNL1        0.0686
      4 C          63.2821   86.5681   15.6604 C.ar    1  UNL1        0.0324
      5 C          62.8141   86.0425   16.9850 C.ar    1  UNL1        0.0028
      6 C          62.6513   86.9766   18.1473 C.ar    1  UNL1        0.0001
      7 C          62.9567   88.4362   17.9850 C.ar    1  UNL1        0.0015
      8 C          63.4247   88.9618   16.6604 C.ar    1  UNL1        0.0190
      9 C          63.5874   88.0277   15.4981 C.ar    1  UNL1        0.0838
     10 N          63.3563   84.4317   14.0556 N.pl3   1  UNL1       -0.3034
     11 C          62.2357   83.6705   14.6997 C.3     1  UNL1        0.1082
     12 C          62.0578   82.2095   14.4104 C.3     1  UNL1        0.0938
     13 N          63.0006   81.5096   13.4770 N.3     1  UNL1       -0.2686
     14 C          62.8228   80.0485   13.1877 C.3     1  UNL1        0.0897
     15 C          64.1212   82.2707   12.8329 C.3     1  UNL1        0.0938
     16 C          64.2991   83.7318   13.1222 C.3     1  UNL1        0.1082
     17 S          64.4311   89.5697   13.4843 S.O2    1  UNL1        0.0860
     18 O          63.4653   89.3531   12.3572 O.2     1  UNL1       -0.1476
     19 O          65.3968   89.7864   14.6114 O.2     1  UNL1       -0.1476
     20 C          65.6398   93.5157   11.6902 C.ar    1  UNL1       -0.0224
     21 C          64.6688   92.6294   10.9679 C.ar    1  UNL1       -0.0029
     22 C          64.2659   91.3141   11.5660 C.ar    1  UNL1        0.0201
     23 C          64.8340   90.8851   12.8863 C.ar    1  UNL1        0.1277
     24 C          65.8050   91.7714   13.6085 C.ar    1  UNL1        0.0201
     25 C          66.2079   93.0866   13.0105 C.ar    1  UNL1       -0.0029
     26 C          66.0606   96.0671   11.9419 C.3     1  UNL1        0.0047
     27 C          66.0428   94.8310   11.0923 C.3     1  UNL1        0.0224
     28 C          66.4280   94.9103    9.6447 C.3     1  UNL1        0.0047
@<TRIPOS>BOND
     1    26    27    1
     2    27    28    1
     3    27    20    1
     4    20    21   ar
     5    21    22   ar
     6    22    23   ar
     7    23    17    1
     8    17    18    2
     9    17    19    2
    10    17     1    1
    11     1     2   ar
    12     2     3   ar
    13     3    10    1
    14    10    11    1
    15    11    12    1
    16    12    13    1
    17    13    14    1
    18    13    15    1
    19    15    16    1
    20     3     4   ar
    21     4     5   ar
    22     5     6   ar
    23     6     7   ar
    24     7     8   ar
    25     8     9   ar
    26    23    24   ar
    27    24    25   ar
    28    25    20   ar
    29     9     1   ar
    30    16    10    1
    31     9     4   ar
@<TRIPOS>MOLECULE
*****
 28 31 0 0 0
SMALL
GASTEIGER

@<TRIPOS>ATOM
      1 N          63.9316   88.5950   13.5192 N.ar    1  UNL1       -0.2064
      2 C          64.4293   89.5208   12.4491 C.ar    1  UNL1        0.1144
      3 C          64.6041   90.8808   13.0574 C.ar    1  UNL1        0.0686
      4 C          64.2144   90.7954   14.5033 C.ar    1  UNL1        0.0324
      5 C          64.1843   91.8216   15.5970 C.ar    1  UNL1        0.0028
      6 C          63.7386   91.4350   16.9760 C.ar    1  UNL1        0.0001
      7 C          63.3230   90.0223   17.2615 C.ar    1  UNL1        0.0015
      8 C          63.3531   88.9962   16.1679 C.ar    1  UNL1        0.0190
      9 C          63.7988   89.3827   14.7888 C.ar    1  UNL1        0.0838
     10 N          65.0842   92.1102   12.3447 N.pl3   1  UNL1       -0.3034
     11 C          64.7654   92.3080   10.8923 C.3     1  UNL1        0.1082
     12 C          65.2455   93.5375   10.1797 C.3     1  UNL1        0.0938
     13 N          66.0445   94.5692   10.9194 N.3     1  UNL1       -0.2686
     14 C          66.5247   95.7987   10.2068 C.3     1  UNL1        0.0897
     15 C          66.3634   94.3714   12.3717 C.3     1  UNL1        0.0938
     16 C          65.8832   93.1420   13.0843 C.3     1  UNL1        0.1082
     17 S          63.6212   87.1373   13.3496 S.O2    1  UNL1        0.0860
     18 O          62.7364   87.4615   12.1826 O.2     1  UNL1       -0.1476
     19 O          64.5060   86.8130   14.5166 O.2     1  UNL1       -0.1476
     20 C          62.6900   82.7641   12.8406 C.ar    1  UNL1       -0.0224
     21 C          62.4936   83.7112   11.6941 C.ar    1  UNL1       -0.0029
     22 C          62.8039   85.1689   11.8638 C.ar    1  UNL1        0.0201
     23 C          63.3108   85.6795   13.1800 C.ar    1  UNL1        0.1277
     24 C          63.5073   84.7325   14.3265 C.ar    1  UNL1        0.0201
     25 C          63.1969   83.2749   14.1568 C.ar    1  UNL1       -0.0029
     26 C          61.5681   80.5870   13.7073 C.3     1  UNL1        0.0047
     27 C          62.3797   81.3065   12.6711 C.3     1  UNL1        0.0224
     28 C          62.8809   80.5682   11.4654 C.3     1  UNL1        0.0047
@<TRIPOS>BOND
     1    26    27    1
     2    27    28    1
     3    27    20    1
     4    20    21   ar
     5    21    22   ar
     6    22    23   ar
     7    23    17    1
     8    17    18    2
     9    17    19    2
    10    17     1    1
    11     1     2   ar
    12     2     3   ar
    13     3    10    1
    14    10    11    1
    15    11    12    1
    16    12    13    1
    17    13    14    1
    18    13    15    1
    19    15    16    1
    20     3     4   ar
    21     4     5   ar
    22     5     6   ar
    23     6     7   ar
    24     7     8   ar
    25     8     9   ar
    26    23    24   ar
    27    24    25   ar
    28    25    20   ar
    29     9     1   ar
    30    16    10    1
    31     9     4   ar
@<TRIPOS>MOLECULE
*****
 28 31 0 0 0
SMALL
GASTEIGER

@<TRIPOS>ATOM
      1 N          62.9991   93.8151    0.4579 N.ar    1  UNL1       -0.2064
      2 C          62.9510   93.5455   -1.0169 C.ar    1  UNL1        0.1144
      3 C          63.9909   94.4004   -1.6786 C.ar    1  UNL1        0.0686
      4 C          64.6817   95.1983   -0.6127 C.ar    1  UNL1        0.0324
      5 C          65.7897   96.2076   -0.6739 C.ar    1  UNL1        0.0028
      6 C          66.2848   96.8550    0.5853 C.ar    1  UNL1        0.0001
      7 C          65.6719   96.4933    1.9057 C.ar    1  UNL1        0.0015
      8 C          64.5639   95.4840    1.9669 C.ar    1  UNL1        0.0190
      9 C          64.0688   94.8366    0.7077 C.ar    1  UNL1        0.0838
     10 N          64.2878   94.4489   -3.1481 N.pl3   1  UNL1       -0.3034
     11 C          64.6446   95.7527   -3.7985 C.3     1  UNL1        0.1082
     12 C          64.9415   95.8012   -5.2681 C.3     1  UNL1        0.0938
     13 N          64.8817   94.5460   -6.0871 N.3     1  UNL1       -0.2686
     14 C          65.1786   94.5945   -7.5567 C.3     1  UNL1        0.0897
     15 C          64.5249   93.2423   -5.4367 C.3     1  UNL1        0.0938
     16 C          64.2280   93.1938   -3.9672 C.3     1  UNL1        0.1082
     17 S          62.1302   93.1755    1.4999 S.O2    1  UNL1        0.0860
     18 O          63.2518   92.2498    1.8671 O.2     1  UNL1       -0.1476
     19 O          61.0085   94.1012    1.1328 O.2     1  UNL1       -0.1476
     20 C          59.5233   91.2567    4.6261 C.ar    1  UNL1       -0.0224
     21 C          60.9817   90.9139    4.5522 C.ar    1  UNL1       -0.0029
     22 C          61.8507   91.5535    3.5101 C.ar    1  UNL1        0.0201
     23 C          61.2612   92.5359    2.5420 C.ar    1  UNL1        0.1277
     24 C          59.8028   92.8788    2.6159 C.ar    1  UNL1        0.0201
     25 C          58.9339   92.2392    3.6579 C.ar    1  UNL1       -0.0029
     26 C          59.2768   89.8381    6.7886 C.3     1  UNL1        0.0047
     27 C          58.6543   90.6172    5.6681 C.3     1  UNL1        0.0224
     28 C          57.1629   90.7567    5.5896 C.3     1  UNL1        0.0047
@<TRIPOS>BOND
     1    26    27    1
     2    27    28    1
     3    27    20    1
     4    20    21   ar
     5    21    22   ar
     6    22    23   ar
     7    23    17    1
     8    17    18    2
     9    17    19    2
    10    17     1    1
    11     1     2   ar
    12     2     3   ar
    13     3    10    1
    14    10    11    1
    15    11    12    1
    16    12    13    1
    17    13    14    1
    18    13    15    1
    19    15    16    1
    20     3     4   ar
    21     4     5   ar
    22     5     6   ar
    23     6     7   ar
    24     7     8   ar
    25     8     9   ar
    26    23    24   ar
    27    24    25   ar
    28    25    20   ar
    29     9     1   ar
    30    16    10    1
    31     9     4   ar
@<TRIPOS>MOLECULE
*****
 28 31 0 0 0
SMALL
GASTEIGER

@<TRIPOS>ATOM
      1 N          72.3236   76.6935   12.9585 N.ar    1  UNL1       -0.2064
      2 C          72.1272   77.2793   11.5916 C.ar    1  UNL1        0.1144
      3 C          72.4572   78.7409   11.6620 C.ar    1  UNL1        0.0686
      4 C          72.8574   79.0583   13.0724 C.ar    1  UNL1        0.0324
      5 C          73.2864   80.3361   13.7305 C.ar    1  UNL1        0.0028
      6 C          73.6328   80.3485   15.1899 C.ar    1  UNL1        0.0001
      7 C          73.5503   79.0831   15.9911 C.ar    1  UNL1        0.0015
      8 C          73.1213   77.8054   15.3330 C.ar    1  UNL1        0.0190
      9 C          72.7749   77.7929   13.8736 C.ar    1  UNL1        0.0838
     10 N          72.3973   79.7141   10.5222 N.pl3   1  UNL1       -0.3034
     11 C          72.4934   79.2208    9.1089 C.3     1  UNL1        0.1082
     12 C          72.4336   80.1941    7.9691 C.3     1  UNL1        0.0938
     13 N          72.2777   81.6607    8.2425 N.3     1  UNL1       -0.2686
     14 C          72.2179   82.6339    7.1027 C.3     1  UNL1        0.0897
     15 C          72.1817   82.1540    9.6558 C.3     1  UNL1        0.0938
     16 C          72.2415   81.1807   10.7956 C.3     1  UNL1        0.1082
     17 S          72.1067   75.2598   13.3427 S.O2    1  UNL1        0.0860
     18 O          73.4785   74.9180   12.8417 O.2     1  UNL1       -0.1476
     19 O          70.7348   75.6016   13.8438 O.2     1  UNL1       -0.1476
     20 C          71.4560   70.9590   14.4958 C.ar    1  UNL1       -0.0224
     21 C          72.0399   71.9212   15.4873 C.ar    1  UNL1       -0.0029
     22 C          72.2568   73.3548   15.1029 C.ar    1  UNL1        0.0201
     23 C          71.8898   73.8262   13.7270 C.ar    1  UNL1        0.1277
     24 C          71.3059   72.8639   12.7355 C.ar    1  UNL1        0.0201
     25 C          71.0890   71.4304   13.1198 C.ar    1  UNL1       -0.0029
     26 C          71.6759   69.0362   16.2291 C.3     1  UNL1        0.0047
     27 C          71.2390   69.5254   14.8800 C.3     1  UNL1        0.0224
     28 C          70.5853   68.5809   13.9154 C.3     1  UNL1        0.0047
@<TRIPOS>BOND
     1    26    27    1
     2    27    28    1
     3    27    20    1
     4    20    21   ar
     5    21    22   ar
     6    22    23   ar
     7    23    17    1
     8    17    18    2
     9    17    19    2
    10    17     1    1
    11     1     2   ar
    12     2     3   ar
    13     3    10    1
    14    10    11    1
    15    11    12    1
    16    12    13    1
    17    13    14    1
    18    13    15    1
    19    15    16    1
    20     3     4   ar
    21     4     5   ar
    22     5     6   ar
    23     6     7   ar
    24     7     8   ar
    25     8     9   ar
    26    23    24   ar
    27    24    25   ar
    28    25    20   ar
    29     9     1   ar
    30    16    10    1
    31     9     4   ar
@<TRIPOS>MOLECULE
*****
 28 31 0 0 0
SMALL
GASTEIGER

@<TRIPOS>ATOM
      1 N          57.8332   94.4611   -2.9168 N.ar    1  UNL1       -0.2064
      2 C          56.4397   94.8546   -2.5251 C.ar    1  UNL1        0.1144
      3 C          55.6690   95.1406   -3.7797 C.ar    1  UNL1        0.0686
      4 C          56.5861   94.9240   -4.9468 C.ar    1  UNL1        0.0324
      5 C          56.3761   95.0550   -6.4262 C.ar    1  UNL1        0.0028
      6 C          57.5036   94.7659   -7.3722 C.ar    1  UNL1        0.0001
      7 C          58.8412   94.3460   -6.8389 C.ar    1  UNL1        0.0015
      8 C          59.0513   94.2151   -5.3595 C.ar    1  UNL1        0.0190
      9 C          57.9237   94.5041   -4.4134 C.ar    1  UNL1        0.0838
     10 N          54.2332   95.5683   -3.8543 N.pl3   1  UNL1       -0.3034
     11 C          53.4185   95.6826   -2.5999 C.3     1  UNL1        0.1082
     12 C          51.9827   96.1102   -2.6744 C.3     1  UNL1        0.0938
     13 N          51.3615   96.4235   -4.0033 N.3     1  UNL1       -0.2686
     14 C          49.9256   96.8511   -4.0778 C.3     1  UNL1        0.0897
     15 C          52.1761   96.3092   -5.2576 C.3     1  UNL1        0.0938
     16 C          53.6119   95.8815   -5.1831 C.3     1  UNL1        0.1082
     17 S          58.9417   94.0899   -1.9768 S.O2    1  UNL1        0.0860
     18 O          59.3035   95.5383   -1.8314 O.2     1  UNL1       -0.1476
     19 O          58.5799   92.6415   -2.1221 O.2     1  UNL1       -0.1476
     20 C          62.2671   92.9761    0.8430 C.ar    1  UNL1       -0.0224
     21 C          62.5860   93.5964   -0.4850 C.ar    1  UNL1       -0.0029
     22 C          61.4775   93.9677   -1.4249 C.ar    1  UNL1        0.0201
     23 C          60.0501   93.7186   -1.0368 C.ar    1  UNL1        0.1277
     24 C          59.7313   93.0983    0.2912 C.ar    1  UNL1        0.0201
     25 C          60.8397   92.7271    1.2310 C.ar    1  UNL1       -0.0029
     26 C          63.1799   91.4936    2.7714 C.3     1  UNL1        0.0047
     27 C          63.3755   92.6048    1.7830 C.3     1  UNL1        0.0224
     28 C          64.6794   93.3447    1.7346 C.3     1  UNL1        0.0047
@<TRIPOS>BOND
     1    26    27    1
     2    27    28    1
     3    27    20    1
     4    20    21   ar
     5    21    22   ar
     6    22    23   ar
     7    23    17    1
     8    17    18    2
     9    17    19    2
    10    17     1    1
    11     1     2   ar
    12     2     3   ar
    13     3    10    1
    14    10    11    1
    15    11    12    1
    16    12    13    1
    17    13    14    1
    18    13    15    1
    19    15    16    1
    20     3     4   ar
    21     4     5   ar
    22     5     6   ar
    23     6     7   ar
    24     7     8   ar
    25     8     9   ar
    26    23    24   ar
    27    24    25   ar
    28    25    20   ar
    29     9     1   ar
    30    16    10    1
    31     9     4   ar
@<TRIPOS>MOLECULE
*****
 28 31 0 0 0
SMALL
GASTEIGER

@<TRIPOS>ATOM
      1 N          63.0184   88.8752   11.3497 N.ar    1  UNL1       -0.2064
      2 C          63.3919   87.6779   12.1725 C.ar    1  UNL1        0.1144
      3 C          62.4565   86.5607   11.8163 C.ar    1  UNL1        0.0686
      4 C          61.5049   87.0675   10.7734 C.ar    1  UNL1        0.0324
      5 C          60.3671   86.4112   10.0491 C.ar    1  UNL1        0.0028
      6 C          59.5766   87.1855    9.0363 C.ar    1  UNL1        0.0001
      7 C          59.9239   88.6159    8.7480 C.ar    1  UNL1        0.0015
      8 C          61.0617   89.2722    9.4723 C.ar    1  UNL1        0.0190
      9 C          61.8522   88.4980   10.4850 C.ar    1  UNL1        0.0838
     10 N          62.4702   85.1792   12.4005 N.pl3   1  UNL1       -0.3034
     11 C          62.3978   84.9928   13.8872 C.3     1  UNL1        0.1082
     12 C          62.4115   83.6113   14.4714 C.3     1  UNL1        0.0938
     13 N          62.4977   82.4162   13.5690 N.3     1  UNL1       -0.2686
     14 C          62.5114   81.0347   14.1531 C.3     1  UNL1        0.0897
     15 C          62.5701   82.6026   12.0824 C.3     1  UNL1        0.0938
     16 C          62.5564   83.9841   11.4982 C.3     1  UNL1        0.1082
     17 S          63.6927   90.2146   11.3853 S.O2    1  UNL1        0.0860
     18 O          63.9839   90.0292   12.8450 O.2     1  UNL1       -0.1476
     19 O          63.4015   90.4000    9.9256 O.2     1  UNL1       -0.1476
     20 C          65.7157   94.2329   11.4921 C.ar    1  UNL1       -0.0224
     21 C          65.7040   93.3663   12.7164 C.ar    1  UNL1       -0.0029
     22 C          65.0296   92.0269   12.6808 C.ar    1  UNL1        0.0201
     23 C          64.3670   91.5541   11.4209 C.ar    1  UNL1        0.1277
     24 C          64.3787   92.4207   10.1966 C.ar    1  UNL1        0.0201
     25 C          65.0530   93.7600   10.2322 C.ar    1  UNL1       -0.0029
     26 C          67.0118   96.1321   10.2826 C.3     1  UNL1        0.0047
     27 C          66.3899   95.5723   11.5276 C.3     1  UNL1        0.0224
     28 C          66.4424   96.3520   12.8080 C.3     1  UNL1        0.0047
@<TRIPOS>BOND
     1    26    27    1
     2    27    28    1
     3    27    20    1
     4    20    21   ar
     5    21    22   ar
     6    22    23   ar
     7    23    17    1
     8    17    18    2
     9    17    19    2
    10    17     1    1
    11     1     2   ar
    12     2     3   ar
    13     3    10    1
    14    10    11    1
    15    11    12    1
    16    12    13    1
    17    13    14    1
    18    13    15    1
    19    15    16    1
    20     3     4   ar
    21     4     5   ar
    22     5     6   ar
    23     6     7   ar
    24     7     8   ar
    25     8     9   ar
    26    23    24   ar
    27    24    25   ar
    28    25    20   ar
    29     9     1   ar
    30    16    10    1
    31     9     4   ar
