@<TRIPOS>MOLECULE
*****
 27 29 0 0 0
SMALL
GASTEIGER

@<TRIPOS>ATOM
      1 C          64.2502   91.1576   12.2605 C.ar    1  UNL1        0.0277
      2 C          64.1608   90.0544   13.2729 C.ar    1  UNL1        0.0014
      3 C          63.3144   88.8478   12.9944 C.ar    1  UNL1        0.0145
      4 C          62.5574   88.7443   11.7036 C.ar    1  UNL1        0.0513
      5 C          62.6469   89.8475   10.6911 C.ar    1  UNL1        0.0509
      6 C          63.4932   91.0542   10.9696 C.ar    1  UNL1        0.1322
      7 O          63.5827   92.1574    9.9572 O.3     1  UNL1       -0.5057
      8 H          63.1098   92.0927    9.1509 H       1  UNL1        0.2922
      9 N          61.7111   87.5376   11.4251 N.pl3   1  UNL1       -0.3124
     10 H          60.7898   87.4924   11.7693 H       1  UNL1        0.1522
     11 C          62.2684   86.3996   10.6223 C.ar    1  UNL1        0.0513
     12 C          62.3913   86.5223    9.1324 C.ar    1  UNL1        0.0353
     13 C          62.9486   85.3844    8.3296 C.ar    1  UNL1        0.1001
     14 N          63.3830   84.1238    9.0167 N.ar    1  UNL1       -0.2437
     15 C          63.2601   84.0011   10.5066 C.ar    1  UNL1        0.0833
     16 C          63.6945   82.7404   11.1937 C.ar    1  UNL1        0.0305
     17 C          63.5715   82.6177   12.6835 C.ar    1  UNL1        0.0592
     18 CL         64.0059   81.3570   13.3706 Cl      1  UNL1       -0.0822
     19 C          63.0142   83.7556   13.4864 C.ar    1  UNL1        0.0115
     20 C          62.5798   85.0163   12.7993 C.ar    1  UNL1        0.0036
     21 C          62.7028   85.1390   11.3093 C.ar    1  UNL1        0.0312
     22 C          65.0966   92.3643   12.5390 C.3     1  UNL1        0.1022
     23 N          66.5448   92.3710   12.1482 N.3     1  UNL1       -0.2689
     24 C          67.2009   91.6746   14.5638 C.3     1  UNL1        0.0188
     25 C          67.5983   92.0553   13.1683 C.3     1  UNL1        0.0724
     26 C          66.9395   92.6935   10.7374 C.3     1  UNL1        0.0724
     27 C          68.1548   92.0542   10.1339 C.3     1  UNL1        0.0188
@<TRIPOS>BOND
     1    24    25    1
     2    25    23    1
     3    23    26    1
     4    26    27    1
     5    23    22    1
     6    22     1    1
     7     1     2   ar
     8     2     3   ar
     9     3     4   ar
    10     4     9    1
    11     9    11    1
    12    11    12   ar
    13    12    13   ar
    14    13    14   ar
    15    14    15   ar
    16    15    16   ar
    17    16    17   ar
    18    17    18    1
    19    17    19   ar
    20    19    20   ar
    21    20    21   ar
    22     4     5   ar
    23     5     6   ar
    24     6     7    1
    25     6     1   ar
    26    21    11   ar
    27    21    15   ar
    28     9    10    1
    29     7     8    1
@<TRIPOS>MOLECULE
*****
 27 29 0 0 0
SMALL
GASTEIGER

@<TRIPOS>ATOM
      1 C          64.3195   91.2249   12.2709 C.ar    1  UNL1        0.0277
      2 C          63.5354   91.1399   10.9950 C.ar    1  UNL1        0.0014
      3 C          62.6718   89.9438   10.7236 C.ar    1  UNL1        0.0145
      4 C          62.5923   88.8327   11.7281 C.ar    1  UNL1        0.0513
      5 C          63.3764   88.9177   13.0041 C.ar    1  UNL1        0.0509
      6 C          64.2400   90.1138   13.2755 C.ar    1  UNL1        0.1322
      7 O          65.0240   90.1988   14.5514 O.3     1  UNL1       -0.5057
      8 H          64.9744   89.5047   15.1789 H       1  UNL1        0.2922
      9 N          61.7288   87.6367   11.4568 N.pl3   1  UNL1       -0.3124
     10 H          60.8117   87.6006   11.8130 H       1  UNL1        0.1522
     11 C          62.2625   86.4955   10.6426 C.ar    1  UNL1        0.0513
     12 C          62.3649   86.6214    9.1514 C.ar    1  UNL1        0.0353
     13 C          62.8986   85.4802    8.3373 C.ar    1  UNL1        0.1001
     14 N          63.3300   84.2131    9.0143 N.ar    1  UNL1       -0.2437
     15 C          63.2276   84.0872   10.5055 C.ar    1  UNL1        0.0833
     16 C          63.6590   82.8201   11.1826 C.ar    1  UNL1        0.0305
     17 C          63.5566   82.6942   12.6737 C.ar    1  UNL1        0.0592
     18 CL         63.9880   81.4271   13.3508 Cl      1  UNL1       -0.0822
     19 C          63.0229   83.8354   13.4879 C.ar    1  UNL1        0.0115
     20 C          62.5915   85.1025   12.8109 C.ar    1  UNL1        0.0036
     21 C          62.6939   85.2284   11.3196 C.ar    1  UNL1        0.0312
     22 C          65.1830   92.4210   12.5423 C.3     1  UNL1        0.1022
     23 N          66.6184   92.4240   12.1069 N.3     1  UNL1       -0.2689
     24 C          67.6845   92.5151   14.4745 C.3     1  UNL1        0.0188
     25 C          67.6935   92.0031   13.0645 C.3     1  UNL1        0.0724
     26 C          66.9788   92.8479   10.7139 C.3     1  UNL1        0.0724
     27 C          68.0619   92.1273    9.9672 C.3     1  UNL1        0.0188
@<TRIPOS>BOND
     1    24    25    1
     2    25    23    1
     3    23    26    1
     4    26    27    1
     5    23    22    1
     6    22     1    1
     7     1     2   ar
     8     2     3   ar
     9     3     4   ar
    10     4     9    1
    11     9    11    1
    12    11    12   ar
    13    12    13   ar
    14    13    14   ar
    15    14    15   ar
    16    15    16   ar
    17    16    17   ar
    18    17    18    1
    19    17    19   ar
    20    19    20   ar
    21    20    21   ar
    22     4     5   ar
    23     5     6   ar
    24     6     7    1
    25     6     1   ar
    26    21    11   ar
    27    21    15   ar
    28     9    10    1
    29     7     8    1
@<TRIPOS>MOLECULE
*****
 27 29 0 0 0
SMALL
GASTEIGER

@<TRIPOS>ATOM
      1 C          61.6621   87.6938   10.5735 C.ar    1  UNL1        0.0277
      2 C          61.2773   88.9849    9.9141 C.ar    1  UNL1        0.0014
      3 C          61.8095   90.2843   10.4417 C.ar    1  UNL1        0.0145
      4 C          62.7265   90.2925   11.6287 C.ar    1  UNL1        0.0513
      5 C          63.1112   89.0013   12.2882 C.ar    1  UNL1        0.0509
      6 C          62.5790   87.7019   11.7606 C.ar    1  UNL1        0.1322
      7 O          62.9638   86.4108   12.4200 O.3     1  UNL1       -0.5057
      8 H          63.5365   86.4159   13.1615 H       1  UNL1        0.2922
      9 N          63.2587   91.5919   12.1564 N.pl3   1  UNL1       -0.3124
     10 H          62.6671   92.1992   12.6569 H       1  UNL1        0.1522
     11 C          64.6922   91.9659   11.9214 C.ar    1  UNL1        0.0513
     12 C          65.1634   92.2977   10.5366 C.ar    1  UNL1        0.0353
     13 C          66.5969   92.6718   10.3016 C.ar    1  UNL1        0.1001
     14 N          67.5591   92.7140   11.4516 N.ar    1  UNL1       -0.2437
     15 C          67.0879   92.3822   12.8364 C.ar    1  UNL1        0.0833
     16 C          68.0501   92.4245   13.9863 C.ar    1  UNL1        0.0305
     17 C          67.5789   92.0927   15.3711 C.ar    1  UNL1        0.0592
     18 CL         68.5412   92.1349   16.5211 Cl      1  UNL1       -0.0822
     19 C          66.1454   91.7186   15.6061 C.ar    1  UNL1        0.0115
     20 C          65.1831   91.6763   14.4562 C.ar    1  UNL1        0.0036
     21 C          65.6544   92.0082   13.0713 C.ar    1  UNL1        0.0312
     22 C          61.1299   86.3944   10.0458 C.3     1  UNL1        0.1022
     23 N          61.4724   85.9536    8.6536 N.3     1  UNL1       -0.2689
     24 C          63.4678   84.4121    9.2801 C.3     1  UNL1        0.0188
     25 C          62.8378   85.4097    8.3538 C.3     1  UNL1        0.0724
     26 C          60.4496   86.0567    7.5612 C.3     1  UNL1        0.0724
     27 C          59.1377   86.7349    7.8237 C.3     1  UNL1        0.0188
@<TRIPOS>BOND
     1    24    25    1
     2    25    23    1
     3    23    26    1
     4    26    27    1
     5    23    22    1
     6    22     1    1
     7     1     2   ar
     8     2     3   ar
     9     3     4   ar
    10     4     9    1
    11     9    11    1
    12    11    12   ar
    13    12    13   ar
    14    13    14   ar
    15    14    15   ar
    16    15    16   ar
    17    16    17   ar
    18    17    18    1
    19    17    19   ar
    20    19    20   ar
    21    20    21   ar
    22     4     5   ar
    23     5     6   ar
    24     6     7    1
    25     6     1   ar
    26    21    11   ar
    27    21    15   ar
    28     9    10    1
    29     7     8    1
@<TRIPOS>MOLECULE
*****
 27 29 0 0 0
SMALL
GASTEIGER

@<TRIPOS>ATOM
      1 C          61.6775   87.6671   10.5832 C.ar    1  UNL1        0.0277
      2 C          61.2792   88.9567    9.9289 C.ar    1  UNL1        0.0014
      3 C          61.8030   90.2591   10.4576 C.ar    1  UNL1        0.0145
      4 C          62.7251   90.2718   11.6407 C.ar    1  UNL1        0.0513
      5 C          63.1234   88.9821   12.2950 C.ar    1  UNL1        0.0509
      6 C          62.5996   87.6798   11.7663 C.ar    1  UNL1        0.1322
      7 O          62.9979   86.3901   12.4206 O.3     1  UNL1       -0.5057
      8 H          63.5739   86.3981   13.1597 H       1  UNL1        0.2922
      9 N          63.2488   91.5742   12.1694 N.pl3   1  UNL1       -0.3124
     10 H          62.6549   92.1746   12.6752 H       1  UNL1        0.1522
     11 C          64.6776   91.9616   11.9273 C.ar    1  UNL1        0.0513
     12 C          65.1386   92.2988   10.5403 C.ar    1  UNL1        0.0353
     13 C          66.5673   92.6862   10.2983 C.ar    1  UNL1        0.1001
     14 N          67.5351   92.7365   11.4432 N.ar    1  UNL1       -0.2437
     15 C          67.0741   92.3994   12.8302 C.ar    1  UNL1        0.0833
     16 C          68.0418   92.4497   13.9752 C.ar    1  UNL1        0.0305
     17 C          67.5808   92.1125   15.3622 C.ar    1  UNL1        0.0592
     18 CL         68.5486   92.1628   16.5072 Cl      1  UNL1       -0.0822
     19 C          66.1521   91.7250   15.6043 C.ar    1  UNL1        0.0115
     20 C          65.1843   91.6747   14.4593 C.ar    1  UNL1        0.0036
     21 C          65.6454   92.0119   13.0723 C.ar    1  UNL1        0.0312
     22 C          61.1537   86.3647   10.0545 C.3     1  UNL1        0.1022
     23 N          61.4799   85.9383    8.6539 N.3     1  UNL1       -0.2689
     24 C          59.1431   86.7429    7.8527 C.3     1  UNL1        0.0188
     25 C          60.4417   86.0448    7.5765 C.3     1  UNL1        0.0724
     26 C          62.8443   85.4054    8.3307 C.3     1  UNL1        0.0724
     27 C          63.5023   84.4206    9.2511 C.3     1  UNL1        0.0188
@<TRIPOS>BOND
     1    24    25    1
     2    25    23    1
     3    23    26    1
     4    26    27    1
     5    23    22    1
     6    22     1    1
     7     1     2   ar
     8     2     3   ar
     9     3     4   ar
    10     4     9    1
    11     9    11    1
    12    11    12   ar
    13    12    13   ar
    14    13    14   ar
    15    14    15   ar
    16    15    16   ar
    17    16    17   ar
    18    17    18    1
    19    17    19   ar
    20    19    20   ar
    21    20    21   ar
    22     4     5   ar
    23     5     6   ar
    24     6     7    1
    25     6     1   ar
    26    21    11   ar
    27    21    15   ar
    28     9    10    1
    29     7     8    1
@<TRIPOS>MOLECULE
*****
 27 29 0 0 0
SMALL
GASTEIGER

@<TRIPOS>ATOM
      1 C          65.5138   92.3225   11.7863 C.ar    1  UNL1        0.0277
      2 C          64.6953   92.1409   10.5426 C.ar    1  UNL1        0.0014
      3 C          63.4006   91.3855   10.6003 C.ar    1  UNL1        0.0145
      4 C          62.9246   90.8117   11.9019 C.ar    1  UNL1        0.0513
      5 C          63.7431   90.9933   13.1457 C.ar    1  UNL1        0.0509
      6 C          65.0378   91.7486   13.0879 C.ar    1  UNL1        0.1322
      7 O          65.8563   91.9302   14.3317 O.3     1  UNL1       -0.5057
      8 H          65.5589   91.5717   15.1447 H       1  UNL1        0.2922
      9 N          61.6299   90.0563   11.9597 N.pl3   1  UNL1       -0.3124
     10 H          61.0228   90.1779   12.7251 H       1  UNL1        0.1522
     11 C          61.2603   89.1157   10.8512 C.ar    1  UNL1        0.0513
     12 C          60.4153   89.5974    9.7093 C.ar    1  UNL1        0.0353
     13 C          60.0457   88.6568    8.6009 C.ar    1  UNL1        0.1001
     14 N          60.5211   87.2345    8.6343 N.ar    1  UNL1       -0.2437
     15 C          61.3661   86.7528    9.7762 C.ar    1  UNL1        0.0833
     16 C          61.8414   85.3305    9.8097 C.ar    1  UNL1        0.0305
     17 C          62.6864   84.8489   10.9516 C.ar    1  UNL1        0.0592
     18 CL         63.1618   83.4266   10.9851 Cl      1  UNL1       -0.0822
     19 C          63.0560   85.7895   12.0601 C.ar    1  UNL1        0.0115
     20 C          62.5807   87.2118   12.0266 C.ar    1  UNL1        0.0036
     21 C          61.7357   87.6934   10.8847 C.ar    1  UNL1        0.0312
     22 C          66.8085   93.0778   11.7285 C.3     1  UNL1        0.1022
     23 N          67.0340   94.0983   10.6526 N.3     1  UNL1       -0.2689
     24 C          67.0110   96.5984    9.9459 C.3     1  UNL1        0.0188
     25 C          66.4934   95.4884   10.8121 C.3     1  UNL1        0.0724
     26 C          67.8001   93.7287    9.4170 C.3     1  UNL1        0.0724
     27 C          68.3963   92.3586    9.2860 C.3     1  UNL1        0.0188
@<TRIPOS>BOND
     1    24    25    1
     2    25    23    1
     3    23    26    1
     4    26    27    1
     5    23    22    1
     6    22     1    1
     7     1     2   ar
     8     2     3   ar
     9     3     4   ar
    10     4     9    1
    11     9    11    1
    12    11    12   ar
    13    12    13   ar
    14    13    14   ar
    15    14    15   ar
    16    15    16   ar
    17    16    17   ar
    18    17    18    1
    19    17    19   ar
    20    19    20   ar
    21    20    21   ar
    22     4     5   ar
    23     5     6   ar
    24     6     7    1
    25     6     1   ar
    26    21    11   ar
    27    21    15   ar
    28     9    10    1
    29     7     8    1
@<TRIPOS>MOLECULE
*****
 27 29 0 0 0
SMALL
GASTEIGER

@<TRIPOS>ATOM
      1 C          62.0836   87.0559   11.2133 C.ar    1  UNL1        0.0277
      2 C          63.0574   87.3266   12.3216 C.ar    1  UNL1        0.0014
      3 C          63.4104   88.7394   12.6815 C.ar    1  UNL1        0.0145
      4 C          62.7895   89.8814   11.9330 C.ar    1  UNL1        0.0513
      5 C          61.8157   89.6107   10.8246 C.ar    1  UNL1        0.0509
      6 C          61.4627   88.1979   10.4648 C.ar    1  UNL1        0.1322
      7 O          60.4889   87.9272    9.3565 O.3     1  UNL1       -0.5057
      8 H          60.1011   88.6406    8.8889 H       1  UNL1        0.2922
      9 N          63.1425   91.2942   12.2929 N.pl3   1  UNL1       -0.3124
     10 H          62.4706   91.8773   12.7144 H       1  UNL1        0.1522
     11 C          64.5192   91.8185   12.0104 C.ar    1  UNL1        0.0513
     12 C          64.8952   92.2261   10.6167 C.ar    1  UNL1        0.0353
     13 C          66.2719   92.7503   10.3343 C.ar    1  UNL1        0.1001
     14 N          67.2726   92.8670   11.4456 N.ar    1  UNL1       -0.2437
     15 C          66.8966   92.4594   12.8393 C.ar    1  UNL1        0.0833
     16 C          67.8973   92.5761   13.9506 C.ar    1  UNL1        0.0305
     17 C          67.5213   92.1685   15.3443 C.ar    1  UNL1        0.0592
     18 CL         68.5220   92.2852   16.4556 Cl      1  UNL1       -0.0822
     19 C          66.1446   91.6442   15.6268 C.ar    1  UNL1        0.0115
     20 C          65.1439   91.5276   14.5155 C.ar    1  UNL1        0.0036
     21 C          65.5199   91.9352   13.1217 C.ar    1  UNL1        0.0312
     22 C          61.7307   85.6431   10.8535 C.3     1  UNL1        0.1022
     23 N          62.8165   84.6342   10.6231 N.3     1  UNL1       -0.2689
     24 C          64.3852   82.7735   11.5325 C.3     1  UNL1        0.0188
     25 C          63.3631   83.8442   11.7751 C.3     1  UNL1        0.0724
     26 C          63.3558   84.4153    9.2405 C.3     1  UNL1        0.0724
     27 C          62.9185   85.3054    8.1152 C.3     1  UNL1        0.0188
@<TRIPOS>BOND
     1    24    25    1
     2    25    23    1
     3    23    26    1
     4    26    27    1
     5    23    22    1
     6    22     1    1
     7     1     2   ar
     8     2     3   ar
     9     3     4   ar
    10     4     9    1
    11     9    11    1
    12    11    12   ar
    13    12    13   ar
    14    13    14   ar
    15    14    15   ar
    16    15    16   ar
    17    16    17   ar
    18    17    18    1
    19    17    19   ar
    20    19    20   ar
    21    20    21   ar
    22     4     5   ar
    23     5     6   ar
    24     6     7    1
    25     6     1   ar
    26    21    11   ar
    27    21    15   ar
    28     9    10    1
    29     7     8    1
@<TRIPOS>MOLECULE
*****
 27 29 0 0 0
SMALL
GASTEIGER

@<TRIPOS>ATOM
      1 C          65.9676   92.8027   11.6507 C.ar    1  UNL1        0.0277
      2 C          65.0829   92.4749   10.4845 C.ar    1  UNL1        0.0014
      3 C          63.8644   91.6231   10.6836 C.ar    1  UNL1        0.0145
      4 C          63.5305   91.0991   12.0489 C.ar    1  UNL1        0.0513
      5 C          64.4152   91.4269   13.2151 C.ar    1  UNL1        0.0509
      6 C          65.6338   92.2786   13.0160 C.ar    1  UNL1        0.1322
      7 O          66.5184   92.6064   14.1821 O.3     1  UNL1       -0.5057
      8 H          66.3099   92.2791   15.0349 H       1  UNL1        0.2922
      9 N          62.3120   90.2474   12.2480 N.pl3   1  UNL1       -0.3124
     10 H          61.4834   90.6477   12.5979 H       1  UNL1        0.1522
     11 C          62.3559   88.7856   11.9140 C.ar    1  UNL1        0.0513
     12 C          63.2214   87.8589   12.7152 C.ar    1  UNL1        0.0353
     13 C          63.2653   86.3973   12.3811 C.ar    1  UNL1        0.1001
     14 N          62.4437   85.8624   11.2459 N.ar    1  UNL1       -0.2437
     15 C          61.5782   86.7891   10.4446 C.ar    1  UNL1        0.0833
     16 C          60.7566   86.2542    9.3094 C.ar    1  UNL1        0.0305
     17 C          59.8911   87.1809    8.5081 C.ar    1  UNL1        0.0592
     18 CL         59.0695   86.6460    7.3729 Cl      1  UNL1       -0.0822
     19 C          59.8472   88.6426    8.8422 C.ar    1  UNL1        0.0115
     20 C          60.6688   89.1775    9.9774 C.ar    1  UNL1        0.0036
     21 C          61.5343   88.2507   10.7787 C.ar    1  UNL1        0.0312
     22 C          67.1862   93.6544   11.4515 C.3     1  UNL1        0.1022
     23 N          67.3849   94.3887   10.1588 N.3     1  UNL1       -0.2689
     24 C          65.5470   96.1800   10.5633 C.3     1  UNL1        0.0188
     25 C          66.8882   95.7965   10.0118 C.3     1  UNL1        0.0724
     26 C          68.0803   93.7153    9.0129 C.3     1  UNL1        0.0724
     27 C          68.5663   92.3034    9.1558 C.3     1  UNL1        0.0188
@<TRIPOS>BOND
     1    24    25    1
     2    25    23    1
     3    23    26    1
     4    26    27    1
     5    23    22    1
     6    22     1    1
     7     1     2   ar
     8     2     3   ar
     9     3     4   ar
    10     4     9    1
    11     9    11    1
    12    11    12   ar
    13    12    13   ar
    14    13    14   ar
    15    14    15   ar
    16    15    16   ar
    17    16    17   ar
    18    17    18    1
    19    17    19   ar
    20    19    20   ar
    21    20    21   ar
    22     4     5   ar
    23     5     6   ar
    24     6     7    1
    25     6     1   ar
    26    21    11   ar
    27    21    15   ar
    28     9    10    1
    29     7     8    1
@<TRIPOS>MOLECULE
*****
 27 29 0 0 0
SMALL
GASTEIGER

@<TRIPOS>ATOM
      1 C          64.5558   91.5131   12.2295 C.ar    1  UNL1        0.0277
      2 C          63.8000   91.2424   10.9625 C.ar    1  UNL1        0.0014
      3 C          63.0442   89.9570   10.8001 C.ar    1  UNL1        0.0145
      4 C          63.0441   88.9423   11.9048 C.ar    1  UNL1        0.0513
      5 C          63.7999   89.2130   13.1720 C.ar    1  UNL1        0.0509
      6 C          64.5558   90.4985   13.3343 C.ar    1  UNL1        0.1322
      7 O          65.3115   90.7692   14.6014 O.3     1  UNL1       -0.5057
      8 H          65.3115   90.1354   15.2915 H       1  UNL1        0.2922
      9 N          62.2882   87.6569   11.7425 N.pl3   1  UNL1       -0.3124
     10 H          62.4755   86.8969   12.3397 H       1  UNL1        0.1522
     11 C          61.2470   87.5294   10.6703 C.ar    1  UNL1        0.0513
     12 C          59.9399   88.2528   10.8043 C.ar    1  UNL1        0.0353
     13 C          58.8988   88.1253    9.7321 C.ar    1  UNL1        0.1001
     14 N          59.1647   87.2743    8.5258 N.ar    1  UNL1       -0.2437
     15 C          60.4718   86.5508    8.3918 C.ar    1  UNL1        0.0833
     16 C          60.7378   85.6998    7.1855 C.ar    1  UNL1        0.0305
     17 C          62.0449   84.9763    7.0515 C.ar    1  UNL1        0.0592
     18 CL         62.3108   84.1253    5.8453 Cl      1  UNL1       -0.0822
     19 C          63.0861   85.1038    8.1238 C.ar    1  UNL1        0.0115
     20 C          62.8202   85.9548    9.3300 C.ar    1  UNL1        0.0036
     21 C          61.5130   86.6783    9.4640 C.ar    1  UNL1        0.0312
     22 C          65.3117   92.7986   12.3919 C.3     1  UNL1        0.1022
     23 N          66.2529   93.2560   11.3173 N.3     1  UNL1       -0.2689
     24 C          67.9861   92.4655    9.5506 C.3     1  UNL1        0.0188
     25 C          67.4335   92.4092   10.9440 C.3     1  UNL1        0.0724
     26 C          66.0137   94.5603   10.6160 C.3     1  UNL1        0.0724
     27 C          66.0623   95.8462   11.3867 C.3     1  UNL1        0.0188
@<TRIPOS>BOND
     1    24    25    1
     2    25    23    1
     3    23    26    1
     4    26    27    1
     5    23    22    1
     6    22     1    1
     7     1     2   ar
     8     2     3   ar
     9     3     4   ar
    10     4     9    1
    11     9    11    1
    12    11    12   ar
    13    12    13   ar
    14    13    14   ar
    15    14    15   ar
    16    15    16   ar
    17    16    17   ar
    18    17    18    1
    19    17    19   ar
    20    19    20   ar
    21    20    21   ar
    22     4     5   ar
    23     5     6   ar
    24     6     7    1
    25     6     1   ar
    26    21    11   ar
    27    21    15   ar
    28     9    10    1
    29     7     8    1
@<TRIPOS>MOLECULE
*****
 27 29 0 0 0
SMALL
GASTEIGER

@<TRIPOS>ATOM
      1 C          65.0340   92.5059   11.6817 C.ar    1  UNL1        0.0277
      2 C          64.2617   91.8282   10.5890 C.ar    1  UNL1        0.0014
      3 C          63.4971   90.5708   10.8796 C.ar    1  UNL1        0.0145
      4 C          63.5049   89.9911   12.2629 C.ar    1  UNL1        0.0513
      5 C          64.2772   90.6688   13.3558 C.ar    1  UNL1        0.0509
      6 C          65.0418   91.9261   13.0652 C.ar    1  UNL1        0.1322
      7 O          65.8141   92.6038   14.1580 O.3     1  UNL1       -0.5057
      8 H          65.8190   92.2417   15.0222 H       1  UNL1        0.2922
      9 N          62.7403   88.7338   12.5535 N.pl3   1  UNL1       -0.3124
     10 H          61.7972   88.6571   12.2816 H       1  UNL1        0.1522
     11 C          63.4126   87.5931   13.2586 C.ar    1  UNL1        0.0513
     12 C          64.2132   87.8469   14.5014 C.ar    1  UNL1        0.0353
     13 C          64.8855   86.7063   15.2064 C.ar    1  UNL1        0.1001
     14 N          64.7572   85.3119   14.6685 N.ar    1  UNL1       -0.2437
     15 C          63.9567   85.0582   13.4256 C.ar    1  UNL1        0.0833
     16 C          63.8285   83.6638   12.8877 C.ar    1  UNL1        0.0305
     17 C          63.0280   83.4101   11.6449 C.ar    1  UNL1        0.0592
     18 CL         62.8998   82.0157   11.1070 Cl      1  UNL1       -0.0822
     19 C          62.3556   84.5507   10.9398 C.ar    1  UNL1        0.0115
     20 C          62.4839   85.9450   11.4777 C.ar    1  UNL1        0.0036
     21 C          63.2844   86.1988   12.7207 C.ar    1  UNL1        0.0312
     22 C          65.7986   93.7632   11.3911 C.3     1  UNL1        0.1022
     23 N          66.9512   93.7353   10.4316 N.3     1  UNL1       -0.2689
     24 C          68.6472   92.3251    9.0587 C.3     1  UNL1        0.0188
     25 C          67.7415   92.4741   10.2451 C.3     1  UNL1        0.0724
     26 C          67.3135   94.9687    9.6585 C.3     1  UNL1        0.0724
     27 C          66.8783   96.3172   10.1506 C.3     1  UNL1        0.0188
@<TRIPOS>BOND
     1    24    25    1
     2    25    23    1
     3    23    26    1
     4    26    27    1
     5    23    22    1
     6    22     1    1
     7     1     2   ar
     8     2     3   ar
     9     3     4   ar
    10     4     9    1
    11     9    11    1
    12    11    12   ar
    13    12    13   ar
    14    13    14   ar
    15    14    15   ar
    16    15    16   ar
    17    16    17   ar
    18    17    18    1
    19    17    19   ar
    20    19    20   ar
    21    20    21   ar
    22     4     5   ar
    23     5     6   ar
    24     6     7    1
    25     6     1   ar
    26    21    11   ar
    27    21    15   ar
    28     9    10    1
    29     7     8    1
