@<TRIPOS>MOLECULE
*****
 45 49 0 0 0
SMALL
GASTEIGER

@<TRIPOS>ATOM
      1 N          61.6942   86.9049   11.5489 N.ar    1  UNL1       -0.3260
      2 C          62.3837   85.8954   12.4180 C.ar    1  UNL1        0.0433
      3 C          63.4242   86.6128   13.2258 C.ar    1  UNL1        0.0383
      4 C          63.3777   88.0658   12.8561 C.ar    1  UNL1        0.0256
      5 C          64.1708   89.2478   13.3292 C.ar    1  UNL1        0.0389
      6 C          63.8948   90.6102   12.7659 C.ar    1  UNL1        0.1392
      7 C          62.8256   90.7908   11.7294 C.ar    1  UNL1        0.0384
      8 C          62.0324   89.6088   11.2563 C.ar    1  UNL1        0.0203
      9 C          62.3085   88.2463   11.8196 C.ar    1  UNL1        0.0606
     10 C          60.5851   86.6227   10.5792 C.3     1  UNL1        0.1324
     11 C          59.8543   89.4099    7.1227 C.ar    1  UNL1        0.0358
     12 C          60.0080   89.9595    8.5099 C.ar    1  UNL1        0.0028
     13 C          60.2516   89.0305    9.6621 C.ar    1  UNL1       -0.0023
     14 C          60.3415   87.5517    9.4271 C.ar    1  UNL1        0.0004
     15 C          60.1879   87.0021    8.0399 C.ar    1  UNL1       -0.0023
     16 C          59.9443   87.9311    6.8877 C.ar    1  UNL1        0.0028
     17 C          59.1236   92.1970    3.6661 C.ar    1  UNL1        0.1769
     18 C          60.5189   91.7491    3.9864 C.ar    1  UNL1        0.1389
     19 N          60.7625   90.8201    5.1386 N.ar    1  UNL1       -0.2218
     20 C          59.6107   90.3389    5.9705 C.ar    1  UNL1        0.1625
     21 N          58.2155   90.7868    5.6502 N.ar    1  UNL1       -0.2218
     22 C          57.9719   91.7158    4.4980 C.ar    1  UNL1        0.1389
     23 C          59.9574   93.3576    1.4964 C.3     1  UNL1        0.2526
     24 O          58.8800   93.1260    2.5140 O.3     1  UNL1       -0.4683
     25 C          62.0852   84.4263   12.4700 C.3     1  UNL1        0.0495
     26 C          62.8957   83.4667   11.6502 C.3     1  UNL1        0.0376
     27 C          62.6300   82.3845   12.6542 C.3     1  UNL1        0.0059
     28 C          63.1614   84.5490   10.6462 C.3     1  UNL1        0.0059
     29 C          63.7063   82.5071   10.8303 C.2     1  UNL1        0.0500
     30 O          63.1892   81.1242   10.5656 O.co2   1  UNL1       -0.5492
     31 O          65.0339   82.9304   10.2751 O.co2   1  UNL1       -0.5492
     32 S          64.3488   85.9872   14.2277 S.3     1  UNL1       -0.1142
     33 C          63.8716   85.7206   15.6246 C.3     1  UNL1        0.0434
     34 C          63.9686   84.2445   15.3760 C.3     1  UNL1        0.0112
     35 C          63.7746   87.1966   15.8731 C.3     1  UNL1        0.0112
     36 C          63.3944   85.4540   17.0214 C.3     1  UNL1        0.0112
     37 O          64.6879   91.7923   13.2390 O.3     1  UNL1       -0.4690
     38 C          66.1188   91.9522   12.8185 C.3     1  UNL1        0.2508
     39 C          66.4773   92.9222   11.7320 C.ar    1  UNL1        0.1026
     40 C          67.2127   92.4463   10.5143 C.ar    1  UNL1        0.0181
     41 C          67.5712   93.4165    9.4278 C.ar    1  UNL1       -0.0014
     42 C          67.1943   94.8624    9.5590 C.ar    1  UNL1       -0.0027
     43 C          67.5527   95.8324    8.4725 C.3     1  UNL1        0.0327
     44 C          66.4589   95.3382   10.7766 C.ar    1  UNL1        0.0943
     45 N          66.1004   94.3682   11.8631 N.ar    1  UNL1       -0.2448
@<TRIPOS>UNITY_ATOM_ATTR
31 1
charge -1
@<TRIPOS>BOND
     1    23    24    1
     2    24    17    1
     3    17    18   ar
     4    18    19   ar
     5    19    20   ar
     6    20    11    1
     7    11    12   ar
     8    12    13   ar
     9    13    14   ar
    10    14    10    1
    11    10     1    1
    12     1     2   ar
    13     2    25    1
    14    25    26    1
    15    26    27    1
    16    26    28    1
    17    26    29    1
    18    29    30   ar
    19    29    31   ar
    20     2     3   ar
    21     3    32    1
    22    32    33    1
    23    33    34    1
    24    33    35    1
    25    33    36    1
    26     3     4   ar
    27     4     5   ar
    28     5     6   ar
    29     6    37    1
    30    37    38    1
    31    38    39    1
    32    39    40   ar
    33    40    41   ar
    34    41    42   ar
    35    42    43    1
    36    42    44   ar
    37    44    45   ar
    38     6     7   ar
    39     7     8   ar
    40     8     9   ar
    41    14    15   ar
    42    15    16   ar
    43    20    21   ar
    44    21    22   ar
    45    22    17   ar
    46    16    11   ar
    47     9     1   ar
    48     9     4   ar
    49    45    39   ar
@<TRIPOS>MOLECULE
*****
 45 49 0 0 0
SMALL
GASTEIGER

@<TRIPOS>ATOM
      1 N          64.4522   90.2733   14.5956 N.ar    1  UNL1       -0.3260
      2 C          65.3537   91.4705   14.5317 C.ar    1  UNL1        0.0433
      3 C          65.0898   92.1808   13.2372 C.ar    1  UNL1        0.0383
      4 C          64.0253   91.4226   12.5010 C.ar    1  UNL1        0.0256
      5 C          63.3638   91.6533   11.1747 C.ar    1  UNL1        0.0389
      6 C          62.3084   90.7051   10.6879 C.ar    1  UNL1        0.1392
      7 C          61.9144   89.5262   11.5275 C.ar    1  UNL1        0.0384
      8 C          62.5758   89.2955   12.8539 C.ar    1  UNL1        0.0203
      9 C          63.6312   90.2437   13.3406 C.ar    1  UNL1        0.0606
     10 C          64.3838   89.2801   15.7176 C.3     1  UNL1        0.1324
     11 C          63.4928   84.9566   14.8442 C.ar    1  UNL1        0.0358
     12 C          63.0848   85.5560   16.1572 C.ar    1  UNL1        0.0028
     13 C          63.3817   86.9972   16.4484 C.ar    1  UNL1       -0.0023
     14 C          64.0868   87.8390   15.4265 C.ar    1  UNL1        0.0004
     15 C          64.4949   87.2395   14.1134 C.ar    1  UNL1       -0.0023
     16 C          64.1979   85.7983   13.8222 C.ar    1  UNL1        0.0028
     17 C          62.6019   80.6330   13.9706 C.ar    1  UNL1        0.1769
     18 C          61.5159   81.5349   14.4779 C.ar    1  UNL1        0.1389
     19 N          61.8128   82.9761   14.7691 N.ar    1  UNL1       -0.2218
     20 C          63.1958   83.5154   14.5530 C.ar    1  UNL1        0.1625
     21 N          64.2818   82.6135   14.0457 N.ar    1  UNL1       -0.2218
     22 C          63.9848   81.1723   13.7545 C.ar    1  UNL1        0.1389
     23 C          62.4033   78.6747   12.2749 C.3     1  UNL1        0.2526
     24 O          62.3049   79.1919   13.6794 O.3     1  UNL1       -0.4683
     25 C          66.3449   91.8848   15.5785 C.3     1  UNL1        0.0495
     26 C          67.7227   92.3205   15.1762 C.3     1  UNL1        0.0376
     27 C          67.4997   93.6439   15.8462 C.3     1  UNL1        0.0059
     28 C          67.9456   90.9972   14.5062 C.3     1  UNL1        0.0059
     29 C          69.1005   92.7564   14.7738 C.2     1  UNL1        0.0500
     30 O          69.7899   92.0921   13.6191 O.co2   1  UNL1       -0.5492
     31 O          69.7887   93.8564   15.5262 O.co2   1  UNL1       -0.5492
     32 S          65.7708   93.4300   12.7621 S.3     1  UNL1       -0.1142
     33 C          66.3524   93.4882   11.3806 C.3     1  UNL1        0.0434
     34 C          66.9913   92.1478   11.5931 C.3     1  UNL1        0.0112
     35 C          65.7134   94.8285   11.1681 C.3     1  UNL1        0.0112
     36 C          66.9339   93.5464    9.9991 C.3     1  UNL1        0.0112
     37 O          61.6469   90.9359    9.3615 O.3     1  UNL1       -0.4690
     38 C          60.3777   90.2127    9.0205 C.3     1  UNL1        0.2508
     39 C          60.4318   88.8050    8.5054 C.ar    1  UNL1        0.1026
     40 C          59.4121   88.3298    7.5133 C.ar    1  UNL1        0.0181
     41 C          59.4661   86.9220    6.9982 C.ar    1  UNL1       -0.0014
     42 C          60.5399   85.9895    7.4752 C.ar    1  UNL1       -0.0027
     43 C          60.5939   84.5818    6.9601 C.3     1  UNL1        0.0327
     44 C          61.5596   86.4648    8.4674 C.ar    1  UNL1        0.0943
     45 N          61.5055   87.8725    8.9825 N.ar    1  UNL1       -0.2448
@<TRIPOS>UNITY_ATOM_ATTR
31 1
charge -1
@<TRIPOS>BOND
     1    23    24    1
     2    24    17    1
     3    17    18   ar
     4    18    19   ar
     5    19    20   ar
     6    20    11    1
     7    11    12   ar
     8    12    13   ar
     9    13    14   ar
    10    14    10    1
    11    10     1    1
    12     1     2   ar
    13     2    25    1
    14    25    26    1
    15    26    27    1
    16    26    28    1
    17    26    29    1
    18    29    30   ar
    19    29    31   ar
    20     2     3   ar
    21     3    32    1
    22    32    33    1
    23    33    34    1
    24    33    35    1
    25    33    36    1
    26     3     4   ar
    27     4     5   ar
    28     5     6   ar
    29     6    37    1
    30    37    38    1
    31    38    39    1
    32    39    40   ar
    33    40    41   ar
    34    41    42   ar
    35    42    43    1
    36    42    44   ar
    37    44    45   ar
    38     6     7   ar
    39     7     8   ar
    40     8     9   ar
    41    14    15   ar
    42    15    16   ar
    43    20    21   ar
    44    21    22   ar
    45    22    17   ar
    46    16    11   ar
    47     9     1   ar
    48     9     4   ar
    49    45    39   ar
@<TRIPOS>MOLECULE
*****
 45 49 0 0 0
SMALL
GASTEIGER

@<TRIPOS>ATOM
      1 N          63.5799   88.6359   13.1745 N.ar    1  UNL1       -0.3260
      2 C          64.2995   89.9519   13.1860 C.ar    1  UNL1        0.0433
      3 C          63.6661   90.8356   12.1526 C.ar    1  UNL1        0.0383
      4 C          62.5550   90.0656   11.5024 C.ar    1  UNL1        0.0256
      5 C          61.5850   90.4268   10.4168 C.ar    1  UNL1        0.0389
      6 C          60.5617   89.4285    9.9628 C.ar    1  UNL1        0.1392
      7 C          60.5085   88.0690   10.5944 C.ar    1  UNL1        0.0384
      8 C          61.4785   87.7078   11.6799 C.ar    1  UNL1        0.0203
      9 C          62.5018   88.7061   12.1339 C.ar    1  UNL1        0.0606
     10 C          63.8849   87.4565   14.0498 C.3     1  UNL1        0.1324
     11 C          63.3021   83.2793   12.4810 C.ar    1  UNL1        0.0358
     12 C          62.9434   84.4584   11.6261 C.ar    1  UNL1        0.0028
     13 C          63.1376   85.8508   12.1490 C.ar    1  UNL1       -0.0023
     14 C          63.6907   86.0642   13.5269 C.ar    1  UNL1        0.0004
     15 C          64.0494   84.8850   14.3819 C.ar    1  UNL1       -0.0023
     16 C          63.8552   83.4926   13.8590 C.ar    1  UNL1        0.0028
     17 C          62.7194   79.1020   10.9124 C.ar    1  UNL1        0.1769
     18 C          63.1412   80.2005    9.9820 C.ar    1  UNL1        0.1389
     19 N          63.3354   81.5929   10.5049 N.ar    1  UNL1       -0.2218
     20 C          63.1079   81.8869   11.9582 C.ar    1  UNL1        0.1625
     21 N          62.6861   80.7884   12.8885 N.ar    1  UNL1       -0.2218
     22 C          62.4918   79.3960   12.3656 C.ar    1  UNL1        0.1389
     23 C          63.7142   76.8803   10.0045 C.3     1  UNL1        0.2526
     24 O          62.5251   77.7096   10.3896 O.3     1  UNL1       -0.4683
     25 C          65.4504   90.3198   14.0749 C.3     1  UNL1        0.0495
     26 C          65.2514   91.3003   15.1925 C.3     1  UNL1        0.0376
     27 C          66.6136   91.8722   14.9333 C.3     1  UNL1        0.0059
     28 C          63.8892   90.7283   15.4517 C.3     1  UNL1        0.0059
     29 C          65.0524   92.2808   16.3102 C.2     1  UNL1        0.0500
     30 O          63.6761   92.5323   16.8510 O.co2   1  UNL1       -0.5492
     31 O          66.2296   93.0097   16.8869 O.co2   1  UNL1       -0.5492
     32 S          64.0723   92.2422   11.8267 S.3     1  UNL1       -0.1142
     33 C          65.3618   92.5026   11.1057 C.3     1  UNL1        0.0434
     34 C          65.8021   93.4059   12.2193 C.3     1  UNL1        0.0112
     35 C          64.9214   91.5992    9.9921 C.3     1  UNL1        0.0112
     36 C          66.6511   92.7628   10.3847 C.3     1  UNL1        0.0112
     37 O          59.5916   89.7897    8.8772 O.3     1  UNL1       -0.4690
     38 C          59.7830   89.2508    7.4905 C.3     1  UNL1        0.2508
     39 C          59.7067   90.1732    6.3102 C.ar    1  UNL1        0.1026
     40 C          60.9538   90.5350    5.5592 C.ar    1  UNL1        0.0181
     41 C          60.8774   91.4575    4.3788 C.ar    1  UNL1       -0.0014
     42 C          59.5541   92.0182    3.9495 C.ar    1  UNL1       -0.0027
     43 C          59.4778   92.9407    2.7692 C.3     1  UNL1        0.0327
     44 C          58.3071   91.6565    4.7006 C.ar    1  UNL1        0.0943
     45 N          58.3834   90.7340    5.8809 N.ar    1  UNL1       -0.2448
@<TRIPOS>UNITY_ATOM_ATTR
31 1
charge -1
@<TRIPOS>BOND
     1    23    24    1
     2    24    17    1
     3    17    18   ar
     4    18    19   ar
     5    19    20   ar
     6    20    11    1
     7    11    12   ar
     8    12    13   ar
     9    13    14   ar
    10    14    10    1
    11    10     1    1
    12     1     2   ar
    13     2    25    1
    14    25    26    1
    15    26    27    1
    16    26    28    1
    17    26    29    1
    18    29    30   ar
    19    29    31   ar
    20     2     3   ar
    21     3    32    1
    22    32    33    1
    23    33    34    1
    24    33    35    1
    25    33    36    1
    26     3     4   ar
    27     4     5   ar
    28     5     6   ar
    29     6    37    1
    30    37    38    1
    31    38    39    1
    32    39    40   ar
    33    40    41   ar
    34    41    42   ar
    35    42    43    1
    36    42    44   ar
    37    44    45   ar
    38     6     7   ar
    39     7     8   ar
    40     8     9   ar
    41    14    15   ar
    42    15    16   ar
    43    20    21   ar
    44    21    22   ar
    45    22    17   ar
    46    16    11   ar
    47     9     1   ar
    48     9     4   ar
    49    45    39   ar
