@<TRIPOS>MOLECULE
*****
 29 31 0 0 0
SMALL
GASTEIGER

@<TRIPOS>ATOM
      1 C          62.6760   85.3451   11.5082 C.ar    1  UNL1        0.1344
      2 C          62.8265   85.0273   10.0501 C.ar    1  UNL1        0.0310
      3 C          61.9553   85.7124    9.0394 C.ar    1  UNL1       -0.0067
      4 C          62.1058   85.3946    7.5811 C.3     1  UNL1        0.0319
      5 C          60.9335   86.7153    9.4868 C.ar    1  UNL1        0.0959
      6 C          60.7830   87.0331   10.9450 C.ar    1  UNL1        0.1393
      7 N          61.6542   86.3480   11.9557 N.ar    1  UNL1       -0.2154
      8 N          63.5472   84.6600   12.5190 N.pl3   1  UNL1       -0.2819
      9 H          64.4301   85.0341   12.7421 H       1  UNL1        0.1551
     10 C          62.1108   79.6485   13.3565 C.3     1  UNL1        0.0515
     11 C          62.4130   81.1014   13.5749 C.ar    1  UNL1        0.0548
     12 C          62.9065   82.0650   12.5367 C.ar    1  UNL1        0.0502
     13 C          63.0732   83.4050   13.1899 C.ar    1  UNL1        0.1539
     14 N          62.6828   83.2695   14.6319 N.ar    1  UNL1       -0.1577
     15 N          62.2747   81.8458   14.8698 N.ar    1  UNL1       -0.2786
     16 H          61.9697   81.4665   15.7256 H       1  UNL1        0.1886
     17 C          60.0623   87.4004    8.4760 C.1     1  UNL1        0.1029
     18 N          59.1911   88.0854    7.4653 N.1     1  UNL1       -0.1907
     19 N          59.7613   88.0360   11.3924 N.pl3   1  UNL1       -0.3145
     20 H          58.8241   87.7616   11.5176 H       1  UNL1        0.1483
     21 C          60.1674   89.4569   11.6492 C.3     1  UNL1        0.1362
     22 C          61.6203   89.8287   11.6750 C.3     1  UNL1        0.2282
     23 O          62.4047   89.7009   12.9472 O.3     1  UNL1       -0.4584
     24 C          63.6695   90.4862   13.1306 C.ar    1  UNL1        0.2249
     25 C          64.5341   90.2458   14.3326 C.ar    1  UNL1        0.0577
     26 C          65.7988   91.0311   14.5160 C.ar    1  UNL1        0.0064
     27 C          66.1991   92.0569   13.4973 C.ar    1  UNL1        0.0209
     28 C          65.3346   92.2973   12.2954 C.ar    1  UNL1        0.1021
     29 N          64.0698   91.5120   12.1120 N.ar    1  UNL1       -0.2101
@<TRIPOS>BOND
     1    10    11    1
     2    11    12   ar
     3    12    13   ar
     4    13     8    1
     5     8     1    1
     6     1     2   ar
     7     2     3   ar
     8     3     4    1
     9     3     5   ar
    10     5    17    1
    11    17    18    3
    12     5     6   ar
    13     6    19    1
    14    19    21    1
    15    21    22    1
    16    22    23    1
    17    23    24    1
    18    24    25   ar
    19    25    26   ar
    20    26    27   ar
    21    27    28   ar
    22    28    29   ar
    23     6     7   ar
    24    13    14   ar
    25    14    15   ar
    26    15    11   ar
    27     7     1   ar
    28    29    24   ar
    29     8     9    1
    30    19    20    1
    31    15    16    1
@<TRIPOS>MOLECULE
*****
 29 31 0 0 0
SMALL
GASTEIGER

@<TRIPOS>ATOM
      1 C          61.7538   89.9635   11.0004 C.ar    1  UNL1        0.1344
      2 C          62.7913   90.8735   10.4128 C.ar    1  UNL1        0.0310
      3 C          63.8896   91.4163   11.2783 C.ar    1  UNL1       -0.0067
      4 C          64.9273   92.3263   10.6908 C.3     1  UNL1        0.0319
      5 C          63.9502   91.0491   12.7314 C.ar    1  UNL1        0.0959
      6 C          62.9126   90.1391   13.3190 C.ar    1  UNL1        0.1393
      7 N          61.8144   89.5963   12.4535 N.ar    1  UNL1       -0.2154
      8 N          60.6554   89.4206   10.1348 N.pl3   1  UNL1       -0.2819
      9 H          59.8099   89.9166   10.0436 H       1  UNL1        0.1551
     10 C          62.8390   85.0125    8.2163 C.3     1  UNL1        0.0515
     11 C          61.8491   86.0959    8.5265 C.ar    1  UNL1        0.0548
     12 C          62.1080   87.3136    9.3633 C.ar    1  UNL1        0.0502
     13 C          60.8454   88.1221    9.4083 C.ar    1  UNL1        0.1539
     14 N          59.8061   87.4042    8.5993 N.ar    1  UNL1       -0.1577
     15 N          60.4264   86.1519    8.0543 N.ar    1  UNL1       -0.2786
     16 H          59.9785   85.4841    7.4864 H       1  UNL1        0.1886
     17 C          65.0485   91.5919   13.5970 C.1     1  UNL1        0.1029
     18 N          66.1468   92.1347   14.4625 N.1     1  UNL1       -0.1907
     19 N          62.9733   89.7719   14.7721 N.pl3   1  UNL1       -0.3145
     20 H          62.3339   90.1684   15.4071 H       1  UNL1        0.1483
     21 C          64.0081   88.8007   15.2577 C.3     1  UNL1        0.1362
     22 C          64.2687   87.5374   14.4922 C.3     1  UNL1        0.2282
     23 O          63.8181   86.2182   15.0462 O.3     1  UNL1       -0.4584
     24 C          63.5790   85.0597   14.1238 C.ar    1  UNL1        0.2249
     25 C          63.0783   85.3012   12.7306 C.ar    1  UNL1        0.0577
     26 C          62.8392   84.1428   11.8082 C.ar    1  UNL1        0.0064
     27 C          63.1008   82.7428   12.2791 C.ar    1  UNL1        0.0209
     28 C          63.6014   82.5013   13.6723 C.ar    1  UNL1        0.1021
     29 N          63.8405   83.6598   14.5946 N.ar    1  UNL1       -0.2101
@<TRIPOS>BOND
     1    10    11    1
     2    11    12   ar
     3    12    13   ar
     4    13     8    1
     5     8     1    1
     6     1     2   ar
     7     2     3   ar
     8     3     4    1
     9     3     5   ar
    10     5    17    1
    11    17    18    3
    12     5     6   ar
    13     6    19    1
    14    19    21    1
    15    21    22    1
    16    22    23    1
    17    23    24    1
    18    24    25   ar
    19    25    26   ar
    20    26    27   ar
    21    27    28   ar
    22    28    29   ar
    23     6     7   ar
    24    13    14   ar
    25    14    15   ar
    26    15    11   ar
    27     7     1   ar
    28    29    24   ar
    29     8     9    1
    30    19    20    1
    31    15    16    1
@<TRIPOS>MOLECULE
*****
 29 31 0 0 0
SMALL
GASTEIGER

@<TRIPOS>ATOM
      1 C          64.7853   91.7418   12.5888 C.ar    1  UNL1        0.1344
      2 C          64.0520   91.6029   11.2877 C.ar    1  UNL1        0.0310
      3 C          63.1785   90.4083   11.0429 C.ar    1  UNL1       -0.0067
      4 C          62.4452   90.2694    9.7417 C.3     1  UNL1        0.0319
      5 C          63.0383   89.3527   12.0992 C.ar    1  UNL1        0.0959
      6 C          63.7716   89.4916   13.4004 C.ar    1  UNL1        0.1393
      7 N          64.6451   90.6861   13.6451 N.ar    1  UNL1       -0.2154
      8 N          65.6589   92.9364   12.8336 N.pl3   1  UNL1       -0.2819
      9 H          65.7442   93.3059   13.7421 H       1  UNL1        0.1551
     10 C          67.2285   96.3915    9.1622 C.3     1  UNL1        0.0515
     11 C          67.1238   95.1561   10.0067 C.ar    1  UNL1        0.0548
     12 C          66.1556   94.9362   11.1310 C.ar    1  UNL1        0.0502
     13 C          66.4023   93.5680   11.6942 C.ar    1  UNL1        0.1539
     14 N          67.5230   92.9424   10.9179 N.ar    1  UNL1       -0.1577
     15 N          67.9690   93.9239    9.8750 N.ar    1  UNL1       -0.2786
     16 H          68.6898   93.7839    9.2192 H       1  UNL1        0.1886
     17 C          62.1647   88.1581   11.8544 C.1     1  UNL1        0.1029
     18 N          61.2913   86.9635   11.6096 N.1     1  UNL1       -0.1907
     19 N          63.6313   88.4359   14.4567 N.pl3   1  UNL1       -0.3145
     20 H          62.8957   88.4869   15.1090 H       1  UNL1        0.1483
     21 C          64.6119   87.3026   14.5193 C.3     1  UNL1        0.1362
     22 C          64.1971   85.9830   15.0996 C.3     1  UNL1        0.2282
     23 O          62.8396   85.4228   14.7940 O.3     1  UNL1       -0.4584
     24 C          62.7136   84.1124   14.0750 C.ar    1  UNL1        0.2249
     25 C          63.0318   84.0262   12.6116 C.ar    1  UNL1        0.0577
     26 C          62.9058   82.7158   11.8926 C.ar    1  UNL1        0.0064
     27 C          62.4616   81.4916   12.6369 C.ar    1  UNL1        0.0209
     28 C          62.1434   81.5778   14.1002 C.ar    1  UNL1        0.1021
     29 N          62.2694   82.8882   14.8192 N.ar    1  UNL1       -0.2101
@<TRIPOS>BOND
     1    10    11    1
     2    11    12   ar
     3    12    13   ar
     4    13     8    1
     5     8     1    1
     6     1     2   ar
     7     2     3   ar
     8     3     4    1
     9     3     5   ar
    10     5    17    1
    11    17    18    3
    12     5     6   ar
    13     6    19    1
    14    19    21    1
    15    21    22    1
    16    22    23    1
    17    23    24    1
    18    24    25   ar
    19    25    26   ar
    20    26    27   ar
    21    27    28   ar
    22    28    29   ar
    23     6     7   ar
    24    13    14   ar
    25    14    15   ar
    26    15    11   ar
    27     7     1   ar
    28    29    24   ar
    29     8     9    1
    30    19    20    1
    31    15    16    1
@<TRIPOS>MOLECULE
*****
 29 31 0 0 0
SMALL
GASTEIGER

@<TRIPOS>ATOM
      1 C          63.8595   90.4074   14.5362 C.ar    1  UNL1        0.1344
      2 C          65.1056   91.2087   14.7709 C.ar    1  UNL1        0.0310
      3 C          65.6982   92.0177   13.6555 C.ar    1  UNL1       -0.0067
      4 C          66.9444   92.8190   13.8902 C.3     1  UNL1        0.0319
      5 C          65.0448   92.0254   12.3053 C.ar    1  UNL1        0.0959
      6 C          63.7987   91.2241   12.0706 C.ar    1  UNL1        0.1393
      7 N          63.2060   90.4151   13.1861 N.ar    1  UNL1       -0.2154
      8 N          63.2668   89.5984   15.6517 N.pl3   1  UNL1       -0.2819
      9 H          62.7082   90.0359   16.3342 H       1  UNL1        0.1551
     10 C          65.0014   84.7398   14.5266 C.3     1  UNL1        0.0515
     11 C          64.3224   85.8895   15.2102 C.ar    1  UNL1        0.0548
     12 C          64.3237   87.3161   14.7468 C.ar    1  UNL1        0.0502
     13 C          63.5251   88.1228   15.7273 C.ar    1  UNL1        0.1539
     14 N          63.0303   87.1947   16.7968 N.ar    1  UNL1       -0.1577
     15 N          63.5230   85.8144   16.4772 N.ar    1  UNL1       -0.2786
     16 H          63.3518   85.0019   17.0062 H       1  UNL1        0.1886
     17 C          65.6375   92.8344   11.1898 C.1     1  UNL1        0.1029
     18 N          66.2302   93.6434   10.0745 N.1     1  UNL1       -0.1907
     19 N          63.1452   91.2318   10.7205 N.pl3   1  UNL1       -0.3145
     20 H          63.0370   92.0790   10.2308 H       1  UNL1        0.1483
     21 C          62.6565   89.9487   10.1164 C.3     1  UNL1        0.1362
     22 C          61.1918   89.6253   10.1259 C.3     1  UNL1        0.2282
     23 O          60.7159   88.2880    9.6408 O.3     1  UNL1       -0.4584
     24 C          61.4621   87.0434   10.0207 C.ar    1  UNL1        0.2249
     25 C          62.2040   86.2651    8.9749 C.ar    1  UNL1        0.0577
     26 C          62.9501   85.0205    9.3547 C.ar    1  UNL1        0.0064
     27 C          62.9544   84.5543   10.7805 C.ar    1  UNL1        0.0209
     28 C          62.2125   85.3327   11.8263 C.ar    1  UNL1        0.1021
     29 N          61.4663   86.5772   11.4464 N.ar    1  UNL1       -0.2101
@<TRIPOS>BOND
     1    10    11    1
     2    11    12   ar
     3    12    13   ar
     4    13     8    1
     5     8     1    1
     6     1     2   ar
     7     2     3   ar
     8     3     4    1
     9     3     5   ar
    10     5    17    1
    11    17    18    3
    12     5     6   ar
    13     6    19    1
    14    19    21    1
    15    21    22    1
    16    22    23    1
    17    23    24    1
    18    24    25   ar
    19    25    26   ar
    20    26    27   ar
    21    27    28   ar
    22    28    29   ar
    23     6     7   ar
    24    13    14   ar
    25    14    15   ar
    26    15    11   ar
    27     7     1   ar
    28    29    24   ar
    29     8     9    1
    30    19    20    1
    31    15    16    1
@<TRIPOS>MOLECULE
*****
 29 31 0 0 0
SMALL
GASTEIGER

@<TRIPOS>ATOM
      1 C          62.7290   85.0884   11.3459 C.ar    1  UNL1        0.1344
      2 C          62.8696   84.8396    9.8734 C.ar    1  UNL1        0.0310
      3 C          62.0189   85.5999    8.8997 C.ar    1  UNL1       -0.0067
      4 C          62.1595   85.3511    7.4272 C.3     1  UNL1        0.0319
      5 C          61.0274   86.6090    9.3985 C.ar    1  UNL1        0.0959
      6 C          60.8868   86.8578   10.8710 C.ar    1  UNL1        0.1393
      7 N          61.7376   86.0975   11.8447 N.ar    1  UNL1       -0.2154
      8 N          63.5798   84.3281   12.3197 N.pl3   1  UNL1       -0.2819
      9 H          64.3394   83.7921   11.9958 H       1  UNL1        0.1551
     10 C          63.1976   86.0140   17.3089 C.3     1  UNL1        0.0515
     11 C          63.0975   85.1594   16.0802 C.ar    1  UNL1        0.0548
     12 C          63.5721   85.5311   14.7066 C.ar    1  UNL1        0.0502
     13 C          63.2732   84.3845   13.7869 C.ar    1  UNL1        0.1539
     14 N          62.6138   83.3042   14.5920 N.ar    1  UNL1       -0.1577
     15 N          62.5052   83.7831   16.0093 N.ar    1  UNL1       -0.2786
     16 H          62.1140   83.2821   16.7611 H       1  UNL1        0.1886
     17 C          60.1766   87.3693    8.4248 C.1     1  UNL1        0.1029
     18 N          59.3259   88.1296    7.4510 N.1     1  UNL1       -0.1907
     19 N          59.8954   87.8669   11.3698 N.pl3   1  UNL1       -0.3145
     20 H          59.0016   87.5758   11.6626 H       1  UNL1        0.1483
     21 C          60.2656   89.3195   11.4225 C.3     1  UNL1        0.1362
     22 C          61.7073   89.7231   11.5154 C.3     1  UNL1        0.2282
     23 O          62.4469   89.5706   12.8115 O.3     1  UNL1       -0.4584
     24 C          63.6743   90.3913   13.0757 C.ar    1  UNL1        0.2249
     25 C          64.5012   90.1313   14.3000 C.ar    1  UNL1        0.0577
     26 C          65.7286   90.9521   14.5641 C.ar    1  UNL1        0.0064
     27 C          66.1292   92.0328   13.6040 C.ar    1  UNL1        0.0209
     28 C          65.3023   92.2927   12.3799 C.ar    1  UNL1        0.1021
     29 N          64.0749   91.4720   12.1157 N.ar    1  UNL1       -0.2101
@<TRIPOS>BOND
     1    10    11    1
     2    11    12   ar
     3    12    13   ar
     4    13     8    1
     5     8     1    1
     6     1     2   ar
     7     2     3   ar
     8     3     4    1
     9     3     5   ar
    10     5    17    1
    11    17    18    3
    12     5     6   ar
    13     6    19    1
    14    19    21    1
    15    21    22    1
    16    22    23    1
    17    23    24    1
    18    24    25   ar
    19    25    26   ar
    20    26    27   ar
    21    27    28   ar
    22    28    29   ar
    23     6     7   ar
    24    13    14   ar
    25    14    15   ar
    26    15    11   ar
    27     7     1   ar
    28    29    24   ar
    29     8     9    1
    30    19    20    1
    31    15    16    1
@<TRIPOS>MOLECULE
*****
 29 31 0 0 0
SMALL
GASTEIGER

@<TRIPOS>ATOM
      1 C          62.2484   87.6450   10.8980 C.ar    1  UNL1        0.1344
      2 C          62.4071   89.0420   10.3754 C.ar    1  UNL1        0.0310
      3 C          63.1094   90.0771   11.2031 C.ar    1  UNL1       -0.0067
      4 C          63.2681   91.4742   10.6805 C.3     1  UNL1        0.0319
      5 C          63.6531   89.7152   12.5535 C.ar    1  UNL1        0.0959
      6 C          63.4945   88.3182   13.0761 C.ar    1  UNL1        0.1393
      7 N          62.7921   87.2831   12.2483 N.ar    1  UNL1       -0.2154
      8 N          61.5460   86.6098   10.0703 N.pl3   1  UNL1       -0.2819
      9 H          61.6917   85.6530   10.2511 H       1  UNL1        0.1551
     10 C          58.8821   89.5804    6.6122 C.3     1  UNL1        0.0515
     11 C          59.3973   88.3977    7.3775 C.ar    1  UNL1        0.0548
     12 C          60.3986   88.4380    8.4936 C.ar    1  UNL1        0.0502
     13 C          60.6218   87.0322    8.9670 C.ar    1  UNL1        0.1539
     14 N          59.7584   86.1232    8.1435 N.ar    1  UNL1       -0.1577
     15 N          59.0016   86.9671    7.1611 N.ar    1  UNL1       -0.2786
     16 H          58.3582   86.6395    6.4918 H       1  UNL1        0.1886
     17 C          64.3555   90.7504   13.3812 C.1     1  UNL1        0.1029
     18 N          65.0578   91.7856   14.2089 N.1     1  UNL1       -0.1907
     19 N          64.0382   87.9563   14.4264 N.pl3   1  UNL1       -0.3145
     20 H          64.0388   88.6223   15.1514 H       1  UNL1        0.1483
     21 C          64.5810   86.5797   14.6720 C.3     1  UNL1        0.1362
     22 C          63.7659   85.5770   15.4337 C.3     1  UNL1        0.2282
     23 O          62.5511   84.9635   14.8028 O.3     1  UNL1       -0.4584
     24 C          62.6765   83.6960   14.0105 C.ar    1  UNL1        0.2249
     25 C          62.7569   83.7521   12.5136 C.ar    1  UNL1        0.0577
     26 C          62.8824   82.4847   11.7213 C.ar    1  UNL1        0.0064
     27 C          62.9275   81.1611   12.4258 C.ar    1  UNL1        0.0209
     28 C          62.8471   81.1051   13.9225 C.ar    1  UNL1        0.1021
     29 N          62.7216   82.3725   14.7149 N.ar    1  UNL1       -0.2101
@<TRIPOS>BOND
     1    10    11    1
     2    11    12   ar
     3    12    13   ar
     4    13     8    1
     5     8     1    1
     6     1     2   ar
     7     2     3   ar
     8     3     4    1
     9     3     5   ar
    10     5    17    1
    11    17    18    3
    12     5     6   ar
    13     6    19    1
    14    19    21    1
    15    21    22    1
    16    22    23    1
    17    23    24    1
    18    24    25   ar
    19    25    26   ar
    20    26    27   ar
    21    27    28   ar
    22    28    29   ar
    23     6     7   ar
    24    13    14   ar
    25    14    15   ar
    26    15    11   ar
    27     7     1   ar
    28    29    24   ar
    29     8     9    1
    30    19    20    1
    31    15    16    1
@<TRIPOS>MOLECULE
*****
 29 31 0 0 0
SMALL
GASTEIGER

@<TRIPOS>ATOM
      1 C          63.9153   86.2252   13.8224 C.ar    1  UNL1        0.1344
      2 C          63.2250   86.0317   12.5049 C.ar    1  UNL1        0.0310
      3 C          62.7634   87.2224   11.7181 C.ar    1  UNL1       -0.0067
      4 C          62.0730   87.0290   10.4005 C.3     1  UNL1        0.0319
      5 C          62.9922   88.6066   12.2488 C.ar    1  UNL1        0.0959
      6 C          63.6826   88.8001   13.5663 C.ar    1  UNL1        0.1393
      7 N          64.1441   87.6094   14.3531 N.ar    1  UNL1       -0.2154
      8 N          64.3769   85.0345   14.6094 N.pl3   1  UNL1       -0.2819
      9 H          65.1394   85.1178   15.2266 H       1  UNL1        0.1551
     10 C          62.7419   80.4159   12.6407 C.3     1  UNL1        0.0515
     11 C          62.9252   81.5939   13.5510 C.ar    1  UNL1        0.0548
     12 C          63.7925   82.7882   13.2837 C.ar    1  UNL1        0.0502
     13 C          63.6768   83.7169   14.4559 C.ar    1  UNL1        0.1539
     14 N          62.7380   83.0965   15.4478 N.ar    1  UNL1       -0.1577
     15 N          62.2735   81.7844   14.8886 N.ar    1  UNL1       -0.2786
     16 H          61.6503   81.1583   15.3231 H       1  UNL1        0.1886
     17 C          62.5306   89.7974   11.4618 C.1     1  UNL1        0.1029
     18 N          62.0690   90.9880   10.6749 N.1     1  UNL1       -0.1907
     19 N          63.9114   90.1844   14.0970 N.pl3   1  UNL1       -0.3145
     20 H          63.1688   90.6827   14.5087 H       1  UNL1        0.1483
     21 C          65.2715   90.8093   14.0003 C.3     1  UNL1        0.1362
     22 C          65.5281   91.8961   12.9987 C.3     1  UNL1        0.2282
     23 O          66.9357   92.3046   12.6793 O.3     1  UNL1       -0.4584
     24 C          67.2489   92.9488   11.3614 C.ar    1  UNL1        0.2249
     25 C          67.9452   92.1637   10.2895 C.ar    1  UNL1        0.0577
     26 C          68.2584   92.8079    8.9716 C.ar    1  UNL1        0.0064
     27 C          67.8753   94.2372    8.7255 C.ar    1  UNL1        0.0209
     28 C          67.1791   95.0222    9.7974 C.ar    1  UNL1        0.1021
     29 N          66.8659   94.3780   11.1153 N.ar    1  UNL1       -0.2101
@<TRIPOS>BOND
     1    10    11    1
     2    11    12   ar
     3    12    13   ar
     4    13     8    1
     5     8     1    1
     6     1     2   ar
     7     2     3   ar
     8     3     4    1
     9     3     5   ar
    10     5    17    1
    11    17    18    3
    12     5     6   ar
    13     6    19    1
    14    19    21    1
    15    21    22    1
    16    22    23    1
    17    23    24    1
    18    24    25   ar
    19    25    26   ar
    20    26    27   ar
    21    27    28   ar
    22    28    29   ar
    23     6     7   ar
    24    13    14   ar
    25    14    15   ar
    26    15    11   ar
    27     7     1   ar
    28    29    24   ar
    29     8     9    1
    30    19    20    1
    31    15    16    1
@<TRIPOS>MOLECULE
*****
 29 31 0 0 0
SMALL
GASTEIGER

@<TRIPOS>ATOM
      1 C          62.7549   86.0794   11.8222 C.ar    1  UNL1        0.1344
      2 C          62.2233   85.4029   10.5935 C.ar    1  UNL1        0.0310
      3 C          61.4564   86.1928    9.5749 C.ar    1  UNL1       -0.0067
      4 C          60.9248   85.5162    8.3461 C.3     1  UNL1        0.0319
      5 C          61.2210   87.6592    9.7848 C.ar    1  UNL1        0.0959
      6 C          61.7525   88.3358   11.0135 C.ar    1  UNL1        0.1393
      7 N          62.5195   87.5459   12.0322 N.ar    1  UNL1       -0.2154
      8 N          63.5219   85.2895   12.8410 N.pl3   1  UNL1       -0.2819
      9 H          64.3796   85.6300   13.1841 H       1  UNL1        0.1551
     10 C          62.3069   80.1621   13.1769 C.3     1  UNL1        0.0515
     11 C          62.4237   81.6241   13.4914 C.ar    1  UNL1        0.0548
     12 C          63.1052   82.6567   12.6434 C.ar    1  UNL1        0.0502
     13 C          62.9821   83.9809   13.3370 C.ar    1  UNL1        0.1539
     14 N          62.2246   83.7667   14.6139 N.ar    1  UNL1       -0.1577
     15 N          61.8794   82.3101   14.7093 N.ar    1  UNL1       -0.2786
     16 H          61.3828   81.8799   15.4425 H       1  UNL1        0.1886
     17 C          60.4540   88.4491    8.7660 C.1     1  UNL1        0.1029
     18 N          59.6870   89.2390    7.7473 N.1     1  UNL1       -0.1907
     19 N          61.5171   89.8022   11.2234 N.pl3   1  UNL1       -0.3145
     20 H          60.8029   90.1042   11.8300 H       1  UNL1        0.1483
     21 C          62.3699   90.8085   10.5093 C.3     1  UNL1        0.1362
     22 C          63.6507   91.2817   11.1303 C.3     1  UNL1        0.2282
     23 O          63.9605   90.9458   12.5590 O.3     1  UNL1       -0.4584
     24 C          65.0679   91.6611   13.2745 C.ar    1  UNL1        0.2249
     25 C          65.7770   90.9944   14.4160 C.ar    1  UNL1        0.0577
     26 C          66.8844   91.7097   15.1315 C.ar    1  UNL1        0.0064
     27 C          67.2828   93.0917   14.7055 C.ar    1  UNL1        0.0209
     28 C          66.5738   93.7583   13.5641 C.ar    1  UNL1        0.1021
     29 N          65.4664   93.0430   12.8486 N.ar    1  UNL1       -0.2101
@<TRIPOS>BOND
     1    10    11    1
     2    11    12   ar
     3    12    13   ar
     4    13     8    1
     5     8     1    1
     6     1     2   ar
     7     2     3   ar
     8     3     4    1
     9     3     5   ar
    10     5    17    1
    11    17    18    3
    12     5     6   ar
    13     6    19    1
    14    19    21    1
    15    21    22    1
    16    22    23    1
    17    23    24    1
    18    24    25   ar
    19    25    26   ar
    20    26    27   ar
    21    27    28   ar
    22    28    29   ar
    23     6     7   ar
    24    13    14   ar
    25    14    15   ar
    26    15    11   ar
    27     7     1   ar
    28    29    24   ar
    29     8     9    1
    30    19    20    1
    31    15    16    1
@<TRIPOS>MOLECULE
*****
 29 31 0 0 0
SMALL
GASTEIGER

@<TRIPOS>ATOM
      1 C          62.7165   85.4166   11.1972 C.ar    1  UNL1        0.1344
      2 C          61.8789   85.4365    9.9531 C.ar    1  UNL1        0.0310
      3 C          61.1511   86.6874    9.5589 C.ar    1  UNL1       -0.0067
      4 C          60.3134   86.7074    8.3147 C.3     1  UNL1        0.0319
      5 C          61.2610   87.9185   10.4089 C.ar    1  UNL1        0.0959
      6 C          62.0986   87.8986   11.6530 C.ar    1  UNL1        0.1393
      7 N          62.8264   86.6476   12.0472 N.ar    1  UNL1       -0.2154
      8 N          63.4444   84.1656   11.5914 N.pl3   1  UNL1       -0.2819
      9 H          64.2791   83.9164   11.1328 H       1  UNL1        0.1551
     10 C          61.0248   80.2204   14.1335 C.3     1  UNL1        0.0515
     11 C          61.7882   81.4808   13.8529 C.ar    1  UNL1        0.0548
     12 C          62.1357   82.0176   12.4960 C.ar    1  UNL1        0.0502
     13 C          62.9003   83.2942   12.6844 C.ar    1  UNL1        0.1539
     14 N          63.0255   83.5464   14.1578 N.ar    1  UNL1       -0.1577
     15 N          62.3381   82.4257   14.8800 N.ar    1  UNL1       -0.2786
     16 H          62.2614   82.3275   15.8565 H       1  UNL1        0.1886
     17 C          60.5332   89.1695   10.0147 C.1     1  UNL1        0.1029
     18 N          59.8053   90.4204    9.6204 N.1     1  UNL1       -0.1907
     19 N          62.2085   89.1296   12.5030 N.pl3   1  UNL1       -0.3145
     20 H          61.6089   89.2503   13.2744 H       1  UNL1        0.1483
     21 C          63.2320   90.1768   12.1776 C.3     1  UNL1        0.1362
     22 C          64.2803   90.5401   13.1871 C.3     1  UNL1        0.2282
     23 O          63.9519   90.5179   14.6506 O.3     1  UNL1       -0.4584
     24 C          63.7670   89.2081   15.3579 C.ar    1  UNL1        0.2249
     25 C          63.0970   89.1682   16.6994 C.ar    1  UNL1        0.0577
     26 C          62.9122   87.8584   17.4067 C.ar    1  UNL1        0.0064
     27 C          63.3973   86.5885   16.7725 C.ar    1  UNL1        0.0209
     28 C          64.0672   86.6285   15.4311 C.ar    1  UNL1        0.1021
     29 N          64.2521   87.9382   14.7238 N.ar    1  UNL1       -0.2101
@<TRIPOS>BOND
     1    10    11    1
     2    11    12   ar
     3    12    13   ar
     4    13     8    1
     5     8     1    1
     6     1     2   ar
     7     2     3   ar
     8     3     4    1
     9     3     5   ar
    10     5    17    1
    11    17    18    3
    12     5     6   ar
    13     6    19    1
    14    19    21    1
    15    21    22    1
    16    22    23    1
    17    23    24    1
    18    24    25   ar
    19    25    26   ar
    20    26    27   ar
    21    27    28   ar
    22    28    29   ar
    23     6     7   ar
    24    13    14   ar
    25    14    15   ar
    26    15    11   ar
    27     7     1   ar
    28    29    24   ar
    29     8     9    1
    30    19    20    1
    31    15    16    1
