@<TRIPOS>MOLECULE
*****
 34 39 0 0 0
SMALL
GASTEIGER

@<TRIPOS>ATOM
      1 C          64.1944   91.1065   11.7947 C.ar    1  UNL1        0.1468
      2 N          63.3992   91.4080   10.5592 N.ar    1  UNL1       -0.1330
      3 N          63.9356   92.6744    9.9602 N.ar    1  UNL1       -0.1271
      4 C          65.0624   93.1554   10.8258 C.ar    1  UNL1        0.1879
      5 N          65.2223   92.1864   11.9595 N.ar    1  UNL1       -0.2753
      6 C          66.2328   92.2807   13.0640 C.ar    1  UNL1        0.0770
      7 C          65.7986   92.6678   14.4467 C.ar    1  UNL1        0.0185
      8 C          66.8090   92.7622   15.5512 C.ar    1  UNL1        0.0015
      9 C          68.2537   92.4695   15.2732 C.ar    1  UNL1        0.0010
     10 C          68.6879   92.0824   13.8907 C.ar    1  UNL1        0.0129
     11 C          67.6774   91.9880   12.7861 C.ar    1  UNL1        0.0738
     12 CL         68.1116   91.6009   11.4035 Cl      1  UNL1       -0.0807
     13 C          65.8848   94.3889   10.5975 C.ar    1  UNL1        0.1207
     14 C          66.8274   94.4569    9.4327 C.ar    1  UNL1        0.0430
     15 C          67.6499   95.6904    9.2044 C.ar    1  UNL1        0.1023
     16 N          67.5297   96.8559   10.1410 N.ar    1  UNL1       -0.2224
     17 C          66.5871   96.7879   11.3058 C.ar    1  UNL1        0.1990
     18 N          65.7647   95.5544   11.5341 N.ar    1  UNL1       -0.2208
     19 C          63.7166   88.2693   13.9939 C.3     1  UNL1        0.0783
     20 C          64.3991   89.5999   14.1122 C.3     1  UNL1        0.0275
     21 C          63.9965   89.9313   12.7057 C.3     1  UNL1        0.0624
     22 C          63.3140   88.6007   12.5874 C.3     1  UNL1        0.0275
     23 C          63.3007   82.6668   14.2688 C.2     1  UNL1        0.0692
     24 C          63.5167   83.4981   13.0391 C.2     1  UNL1        0.0078
     25 C          63.6038   84.9915   13.1491 C.2     1  UNL1       -0.0001
     26 C          63.4749   85.6537   14.4888 C.3     1  UNL1        0.1370
     27 C          63.2589   84.8224   15.7185 C.2     1  UNL1        0.0756
     28 C          63.1719   83.3290   15.6085 C.2     1  UNL1        0.0245
     29 N          63.1692   85.7491   16.8947 N.am    1  UNL1       -0.1645
     30 C          63.3298   87.1531   16.3918 C.2     1  UNL1        0.3276
     31 O          63.3056   88.3977   17.2288 O.2     1  UNL1       -0.2504
     32 N          63.5187   87.0941   14.9049 N.am    1  UNL1       -0.2570
     33 N          63.1266   79.6800   14.0488 N.1     1  UNL1       -0.1908
     34 C          63.2137   81.1734   14.1588 C.1     1  UNL1        0.1004
@<TRIPOS>BOND
     1    33    34    3
     2    34    23    1
     3    23    24    1
     4    24    25    2
     5    25    26    1
     6    26    27    1
     7    27    28    1
     8    27    29    2
     9    29    30    1
    10    30    31    2
    11    30    32   am
    12    19    32    1
    13    19    20    1
    14    20    21    1
    15    21     1    1
    16     1     2   ar
    17     2     3   ar
    18     3     4   ar
    19     4    13    1
    20    13    14   ar
    21    14    15   ar
    22    15    16   ar
    23    16    17   ar
    24    17    18   ar
    25     4     5   ar
    26     5     6    1
    27     6     7   ar
    28     7     8   ar
    29     8     9   ar
    30     9    10   ar
    31    10    11   ar
    32    11    12    1
    33    21    22    1
    34    28    23    2
    35    22    19    1
    36    32    26    1
    37     5     1   ar
    38    11     6   ar
    39    18    13   ar
@<TRIPOS>MOLECULE
*****
 34 39 0 0 0
SMALL
GASTEIGER

@<TRIPOS>ATOM
      1 C          63.4269   85.6518   14.8921 C.ar    1  UNL1        0.1468
      2 N          63.3891   85.0884   16.2817 N.ar    1  UNL1       -0.1330
      3 N          62.9522   83.6564   16.1896 N.ar    1  UNL1       -0.1271
      4 C          62.7199   83.3348   14.7429 C.ar    1  UNL1        0.1879
      5 N          63.0133   84.5681   13.9411 N.ar    1  UNL1       -0.2753
      6 C          62.9111   84.6952   12.4500 C.ar    1  UNL1        0.0770
      7 C          61.8071   85.5075   11.8404 C.ar    1  UNL1        0.0185
      8 C          61.7049   85.6347   10.3494 C.ar    1  UNL1        0.0015
      9 C          62.7066   84.9496    9.4677 C.ar    1  UNL1        0.0010
     10 C          63.8105   84.1373   10.0772 C.ar    1  UNL1        0.0129
     11 C          63.9127   84.0102   11.5684 C.ar    1  UNL1        0.0738
     12 CL         65.0167   83.1979   12.1778 Cl      1  UNL1       -0.0807
     13 C          62.2728   82.0122   14.1945 C.ar    1  UNL1        0.1207
     14 C          63.2044   81.1985   13.3459 C.ar    1  UNL1        0.0430
     15 C          62.7572   79.8759   12.7975 C.ar    1  UNL1        0.1023
     16 N          61.3785   79.3670   13.0976 N.ar    1  UNL1       -0.2224
     17 C          60.4469   80.1806   13.9461 C.ar    1  UNL1        0.1990
     18 N          60.8941   81.5033   14.4946 N.ar    1  UNL1       -0.2208
     19 C          64.3538   89.0347   13.9913 C.3     1  UNL1        0.0783
     20 C          64.2668   88.2651   15.2759 C.3     1  UNL1        0.0275
     21 C          63.8108   87.0530   14.5190 C.3     1  UNL1        0.0624
     22 C          63.8978   87.8225   13.2343 C.3     1  UNL1        0.0275
     23 C          67.7203   93.3727   15.2094 C.2     1  UNL1        0.0692
     24 C          67.6697   92.0446   15.9046 C.2     1  UNL1        0.0078
     25 C          66.7031   90.9937   15.4449 C.2     1  UNL1       -0.0001
     26 C          65.7871   91.2710   14.2900 C.3     1  UNL1        0.1370
     27 C          65.8377   92.5992   13.5948 C.2     1  UNL1        0.0756
     28 C          66.8042   93.6500   14.0545 C.2     1  UNL1        0.0245
     29 N          64.8195   92.5849   12.4932 N.am    1  UNL1       -0.1645
     30 C          64.1397   91.2479   12.5077 C.2     1  UNL1        0.3276
     31 O          63.0527   90.8012   11.5755 O.2     1  UNL1       -0.2504
     32 N          64.7377   90.4358   13.6182 N.am    1  UNL1       -0.2570
     33 N          69.6535   95.4745   16.1289 N.1     1  UNL1       -0.1908
     34 C          68.6869   94.4236   15.6692 C.1     1  UNL1        0.1004
@<TRIPOS>BOND
     1    33    34    3
     2    34    23    1
     3    23    24    1
     4    24    25    2
     5    25    26    1
     6    26    27    1
     7    27    28    1
     8    27    29    2
     9    29    30    1
    10    30    31    2
    11    30    32   am
    12    19    32    1
    13    19    20    1
    14    20    21    1
    15    21     1    1
    16     1     2   ar
    17     2     3   ar
    18     3     4   ar
    19     4    13    1
    20    13    14   ar
    21    14    15   ar
    22    15    16   ar
    23    16    17   ar
    24    17    18   ar
    25     4     5   ar
    26     5     6    1
    27     6     7   ar
    28     7     8   ar
    29     8     9   ar
    30     9    10   ar
    31    10    11   ar
    32    11    12    1
    33    21    22    1
    34    28    23    2
    35    22    19    1
    36    32    26    1
    37     5     1   ar
    38    11     6   ar
    39    18    13   ar
@<TRIPOS>MOLECULE
*****
 34 39 0 0 0
SMALL
GASTEIGER

@<TRIPOS>ATOM
      1 C          60.5294   88.2131    9.7138 C.ar    1  UNL1        0.1468
      2 N          60.3281   88.6537   11.1333 N.ar    1  UNL1       -0.1330
      3 N          60.8665   87.5806   12.0326 N.ar    1  UNL1       -0.1271
      4 C          61.4007   86.4768   11.1685 C.ar    1  UNL1        0.1879
      5 N          61.1923   86.8677    9.7355 N.ar    1  UNL1       -0.2753
      6 C          61.5790   86.0559    8.5350 C.ar    1  UNL1        0.0770
      7 C          63.0202   85.7206    8.2887 C.ar    1  UNL1        0.0185
      8 C          63.4068   84.9087    7.0882 C.ar    1  UNL1        0.0015
      9 C          62.3523   84.4320    6.1338 C.ar    1  UNL1        0.0010
     10 C          60.9112   84.7672    6.3800 C.ar    1  UNL1        0.0129
     11 C          60.5245   85.5792    7.5806 C.ar    1  UNL1        0.0738
     12 CL         59.0833   85.9144    7.8268 Cl      1  UNL1       -0.0807
     13 C          62.0323   85.2053   11.6527 C.ar    1  UNL1        0.1207
     14 C          62.3630   84.1137   10.6784 C.ar    1  UNL1        0.0430
     15 C          62.9946   82.8422   11.1626 C.ar    1  UNL1        0.1023
     16 N          63.2955   82.6623   12.6210 N.ar    1  UNL1       -0.2224
     17 C          62.9648   83.7538   13.5953 C.ar    1  UNL1        0.1990
     18 N          62.3332   85.0253   13.1111 N.ar    1  UNL1       -0.2208
     19 C          59.5816   90.0714    6.7536 C.3     1  UNL1        0.0783
     20 C          59.2562   88.7142    7.3033 C.3     1  UNL1        0.0275
     21 C          60.1368   88.9828    8.4876 C.3     1  UNL1        0.0624
     22 C          60.4621   90.3400    7.9379 C.3     1  UNL1        0.0275
     23 C          61.4783   92.7294    2.1739 C.2     1  UNL1        0.0692
     24 C          62.2983   92.0394    3.2233 C.2     1  UNL1        0.0078
     25 C          61.6229   91.3764    4.3871 C.2     1  UNL1       -0.0001
     26 C          60.1275   91.4035    4.5014 C.3     1  UNL1        0.1370
     27 C          59.3075   92.0935    3.4519 C.2     1  UNL1        0.0756
     28 C          59.9829   92.7565    2.2881 C.2     1  UNL1        0.0245
     29 N          57.8621   91.9576    3.8293 N.am    1  UNL1       -0.1645
     30 C          57.7889   91.1835    5.1121 C.2     1  UNL1        0.3276
     31 O          56.5355   90.8164    5.8500 O.2     1  UNL1       -0.2504
     32 N          59.1890   90.8411    5.5274 N.am    1  UNL1       -0.2570
     33 N          62.8290   94.0553   -0.1537 N.1     1  UNL1       -0.1908
     34 C          62.1536   93.3924    1.0101 C.1     1  UNL1        0.1004
@<TRIPOS>BOND
     1    33    34    3
     2    34    23    1
     3    23    24    1
     4    24    25    2
     5    25    26    1
     6    26    27    1
     7    27    28    1
     8    27    29    2
     9    29    30    1
    10    30    31    2
    11    30    32   am
    12    19    32    1
    13    19    20    1
    14    20    21    1
    15    21     1    1
    16     1     2   ar
    17     2     3   ar
    18     3     4   ar
    19     4    13    1
    20    13    14   ar
    21    14    15   ar
    22    15    16   ar
    23    16    17   ar
    24    17    18   ar
    25     4     5   ar
    26     5     6    1
    27     6     7   ar
    28     7     8   ar
    29     8     9   ar
    30     9    10   ar
    31    10    11   ar
    32    11    12    1
    33    21    22    1
    34    28    23    2
    35    22    19    1
    36    32    26    1
    37     5     1   ar
    38    11     6   ar
    39    18    13   ar
