@<TRIPOS>MOLECULE
*****
 39 44 0 0 0
SMALL
GASTEIGER

@<TRIPOS>ATOM
      1 C          60.1236   88.9142    8.3496 C.ar    1  UNL1        0.0146
      2 C          59.7901   87.5173    7.9167 C.ar    1  UNL1       -0.0011
      3 C          60.3327   86.3458    8.6804 C.ar    1  UNL1        0.0014
      4 C          61.2087   86.5713    9.8770 C.ar    1  UNL1        0.0206
      5 C          61.5422   87.9682   10.3099 C.ar    1  UNL1        0.0989
      6 C          60.9996   89.1396    9.5462 C.ar    1  UNL1        0.1511
      7 O          61.3331   90.5366    9.9790 O.3     1  UNL1       -0.4678
      8 C          62.2091   90.7621   11.1756 C.3     1  UNL1        0.2510
      9 C          62.7517   89.5905   11.9393 C.ar    1  UNL1        0.1087
     10 C          63.6336   89.5028   13.1494 C.ar    1  UNL1        0.1516
     11 N          63.8452   88.0516   13.4645 N.ar    1  UNL1       -0.2192
     12 C          63.0941   87.2425   12.4490 C.ar    1  UNL1        0.1828
     13 N          62.4182   88.1936   11.5064 N.ar    1  UNL1       -0.2851
     14 C          64.2039   90.6626   13.9108 C.2     1  UNL1        0.2648
     15 O          63.4558   91.2337   15.0788 O.2     1  UNL1       -0.2684
     16 N          65.5222   91.2513   13.5041 N.am    1  UNL1       -0.3012
     17 H          66.0132   90.8765   12.7375 H       1  UNL1        0.1497
     18 C          66.0925   92.4111   14.2655 C.3     1  UNL1        0.0720
     19 C          66.4541   93.6761   13.5452 C.3     1  UNL1        0.0213
     20 C          66.3011   92.3059   15.7472 C.3     1  UNL1        0.0213
     21 C          59.5811   90.0858    7.5859 C.3     1  UNL1        0.0468
     22 C          59.1518   89.9168    6.1586 C.3     1  UNL1        0.0770
     23 N          60.8585   92.5879    2.9645 N.pl3   1  UNL1       -0.3046
     24 C          59.4104   92.6983    3.3396 C.3     1  UNL1        0.1081
     25 C          58.8415   91.8079    4.4044 C.3     1  UNL1        0.0938
     26 N          59.7207   90.8072    5.0939 N.3     1  UNL1       -0.2695
     27 C          61.1689   90.6968    4.7187 C.3     1  UNL1        0.0938
     28 C          61.7377   91.5872    3.6540 C.3     1  UNL1        0.1081
     29 C          59.0493   93.4648   -3.6088 C.3     1  UNL1        0.0521
     30 C          59.6438   93.4681   -2.2316 C.ar    1  UNL1        0.0593
     31 C          59.0750   92.5778   -1.1670 C.ar    1  UNL1        0.0148
     32 C          59.6695   92.5812    0.2102 C.ar    1  UNL1        0.0039
     33 C          60.8329   93.4749    0.5227 C.ar    1  UNL1        0.0310
     34 C          61.4274   93.4783    1.8998 C.ar    1  UNL1        0.0493
     35 C          62.5909   94.3721    2.2123 C.ar    1  UNL1        0.0146
     36 C          63.1597   95.2625    1.1476 C.ar    1  UNL1        0.0028
     37 C          62.5652   95.2591   -0.2296 C.ar    1  UNL1        0.0192
     38 C          61.4018   94.3653   -0.5420 C.ar    1  UNL1        0.0821
     39 N          60.8073   94.3620   -1.9192 N.ar    1  UNL1       -0.2496
@<TRIPOS>BOND
     1    29    30    1
     2    30    31   ar
     3    31    32   ar
     4    32    33   ar
     5    33    34   ar
     6    34    23    1
     7    23    24    1
     8    24    25    1
     9    25    26    1
    10    26    22    1
    11    22    21    1
    12    21     1    1
    13     1     2   ar
    14     2     3   ar
    15     3     4   ar
    16     4     5   ar
    17     5     6   ar
    18     6     7    1
    19     7     8    1
    20     8     9    1
    21     9    10   ar
    22    10    14    1
    23    14    15    2
    24    14    16   am
    25    16    18    1
    26    18    19    1
    27    18    20    1
    28    10    11   ar
    29    11    12   ar
    30    12    13   ar
    31    26    27    1
    32    27    28    1
    33    34    35   ar
    34    35    36   ar
    35    36    37   ar
    36    37    38   ar
    37    38    39   ar
    38    39    30   ar
    39    38    33   ar
    40    28    23    1
    41     6     1   ar
    42    13     9   ar
    43    13     5    1
    44    16    17    1
@<TRIPOS>MOLECULE
*****
 39 44 0 0 0
SMALL
GASTEIGER

@<TRIPOS>ATOM
      1 C          63.6688   90.3476   15.9321 C.ar    1  UNL1        0.0146
      2 C          64.9545   91.0481   16.2581 C.ar    1  UNL1       -0.0011
      3 C          65.7383   91.7215   15.1709 C.ar    1  UNL1        0.0014
      4 C          65.2364   91.6945   13.7576 C.ar    1  UNL1        0.0206
      5 C          63.9507   90.9941   13.4316 C.ar    1  UNL1        0.0989
      6 C          63.1669   90.3207   14.5188 C.ar    1  UNL1        0.1511
      7 O          61.8811   89.6202   14.1928 O.3     1  UNL1       -0.4678
      8 C          61.3792   89.5932   12.7795 C.3     1  UNL1        0.2510
      9 C          62.1631   90.2667   11.6922 C.ar    1  UNL1        0.1087
     10 C          61.9205   90.4052   10.2185 C.ar    1  UNL1        0.1516
     11 N          63.0563   91.1913    9.6337 N.ar    1  UNL1       -0.2192
     12 C          64.0008   91.5386   10.7460 C.ar    1  UNL1        0.1828
     13 N          63.4488   90.9672   12.0183 N.ar    1  UNL1       -0.2851
     14 C          60.7480   89.8544    9.4623 C.2     1  UNL1        0.2648
     15 O          59.4107   90.5270    9.5581 O.2     1  UNL1       -0.2684
     16 N          60.9128   88.6309    8.6103 N.am    1  UNL1       -0.3012
     17 H          61.7906   88.1894    8.5474 H       1  UNL1        0.1497
     18 C          59.7403   88.0801    7.8541 C.3     1  UNL1        0.0720
     19 C          59.1956   86.7254    8.1978 C.3     1  UNL1        0.0213
     20 C          59.1125   88.8839    6.7542 C.3     1  UNL1        0.0213
     21 C          62.8850   89.6741   17.0193 C.3     1  UNL1        0.0468
     22 C          63.2582   88.2920   17.4669 C.3     1  UNL1        0.0770
     23 N          63.3384   84.9105   14.4989 N.pl3   1  UNL1       -0.3046
     24 C          64.2778   86.0693   14.3412 C.3     1  UNL1        0.1081
     25 C          64.2511   87.1965   15.3306 C.3     1  UNL1        0.0938
     26 N          63.2850   87.1649   16.4776 N.3     1  UNL1       -0.2695
     27 C          62.3456   86.0060   16.6352 C.3     1  UNL1        0.0938
     28 C          62.3723   84.8789   15.6459 C.3     1  UNL1        0.1081
     29 C          62.6815   84.9123    7.6565 C.3     1  UNL1        0.0521
     30 C          62.8524   84.6301    9.1197 C.ar    1  UNL1        0.0593
     31 C          62.8257   85.7572   10.1091 C.ar    1  UNL1        0.0148
     32 C          62.9966   85.4750   11.5723 C.ar    1  UNL1        0.0039
     33 C          63.1942   84.0656   12.0463 C.ar    1  UNL1        0.0310
     34 C          63.3651   83.7834   13.5095 C.ar    1  UNL1        0.0493
     35 C          63.5628   82.3740   13.9834 C.ar    1  UNL1        0.0146
     36 C          63.5895   81.2469   12.9941 C.ar    1  UNL1        0.0028
     37 C          63.4186   81.5291   11.5308 C.ar    1  UNL1        0.0192
     38 C          63.2210   82.9384   11.0569 C.ar    1  UNL1        0.0821
     39 N          63.0501   83.2206    9.5936 N.ar    1  UNL1       -0.2496
@<TRIPOS>BOND
     1    29    30    1
     2    30    31   ar
     3    31    32   ar
     4    32    33   ar
     5    33    34   ar
     6    34    23    1
     7    23    24    1
     8    24    25    1
     9    25    26    1
    10    26    22    1
    11    22    21    1
    12    21     1    1
    13     1     2   ar
    14     2     3   ar
    15     3     4   ar
    16     4     5   ar
    17     5     6   ar
    18     6     7    1
    19     7     8    1
    20     8     9    1
    21     9    10   ar
    22    10    14    1
    23    14    15    2
    24    14    16   am
    25    16    18    1
    26    18    19    1
    27    18    20    1
    28    10    11   ar
    29    11    12   ar
    30    12    13   ar
    31    26    27    1
    32    27    28    1
    33    34    35   ar
    34    35    36   ar
    35    36    37   ar
    36    37    38   ar
    37    38    39   ar
    38    39    30   ar
    39    38    33   ar
    40    28    23    1
    41     6     1   ar
    42    13     9   ar
    43    13     5    1
    44    16    17    1
@<TRIPOS>MOLECULE
*****
 39 44 0 0 0
SMALL
GASTEIGER

@<TRIPOS>ATOM
      1 C          60.6469   88.7066    9.0601 C.ar    1  UNL1        0.0146
      2 C          60.3042   87.2800    8.7482 C.ar    1  UNL1       -0.0011
      3 C          60.8367   86.1749    9.6114 C.ar    1  UNL1        0.0014
      4 C          61.7118   86.4964   10.7865 C.ar    1  UNL1        0.0206
      5 C          62.0545   87.9230   11.0984 C.ar    1  UNL1        0.0989
      6 C          61.5220   89.0281   10.2351 C.ar    1  UNL1        0.1511
      7 O          61.8647   90.4548   10.5470 O.3     1  UNL1       -0.4678
      8 C          62.7399   90.7763   11.7220 C.3     1  UNL1        0.2510
      9 C          63.2723   89.6711   12.5853 C.ar    1  UNL1        0.1087
     10 C          64.1510   89.6818   13.8008 C.ar    1  UNL1        0.1516
     11 N          64.3515   88.2616   14.2403 N.ar    1  UNL1       -0.2192
     12 C          63.5966   87.3734   13.2963 C.ar    1  UNL1        0.1828
     13 N          62.9296   88.2445   12.2734 N.ar    1  UNL1       -0.2851
     14 C          64.7281   90.8988   14.4611 C.2     1  UNL1        0.2648
     15 O          63.8892   91.7095   15.4039 O.2     1  UNL1       -0.2684
     16 N          66.1441   91.3051   14.1783 N.am    1  UNL1       -0.3012
     17 H          66.6947   90.7730   13.5595 H       1  UNL1        0.1497
     18 C          66.7211   92.5221   14.8386 C.3     1  UNL1        0.0720
     19 C          67.4274   92.3970   16.1560 C.3     1  UNL1        0.0213
     20 C          66.5919   93.8644   14.1814 C.3     1  UNL1        0.0213
     21 C          60.1145   89.8118    8.1968 C.3     1  UNL1        0.0468
     22 C          59.3992   89.4871    6.9190 C.3     1  UNL1        0.0770
     23 N          59.9050   92.1408    3.3201 N.pl3   1  UNL1       -0.3046
     24 C          61.0919   91.4317    3.9018 C.3     1  UNL1        0.1081
     25 C          60.9233   90.5471    5.1015 C.3     1  UNL1        0.0938
     26 N          59.5678   90.3716    5.7194 N.3     1  UNL1       -0.2695
     27 C          58.3809   91.0807    5.1376 C.3     1  UNL1        0.0938
     28 C          58.5495   91.9653    3.9380 C.3     1  UNL1        0.1081
     29 C          65.5521   94.8349    0.4736 C.3     1  UNL1        0.0521
     30 C          64.1824   94.3825    0.8853 C.ar    1  UNL1        0.0593
     31 C          64.0138   93.4979    2.0849 C.ar    1  UNL1        0.0148
     32 C          62.6442   93.0455    2.4966 C.ar    1  UNL1        0.0039
     33 C          61.4432   93.4777    1.7088 C.ar    1  UNL1        0.0310
     34 C          60.0736   93.0254    2.1205 C.ar    1  UNL1        0.0493
     35 C          58.8726   93.4576    1.3326 C.ar    1  UNL1        0.0146
     36 C          59.0412   94.3421    0.1330 C.ar    1  UNL1        0.0028
     37 C          60.4108   94.7945   -0.2787 C.ar    1  UNL1        0.0192
     38 C          61.6118   94.3623    0.5091 C.ar    1  UNL1        0.0821
     39 N          62.9814   94.8147    0.0974 N.ar    1  UNL1       -0.2496
@<TRIPOS>BOND
     1    29    30    1
     2    30    31   ar
     3    31    32   ar
     4    32    33   ar
     5    33    34   ar
     6    34    23    1
     7    23    24    1
     8    24    25    1
     9    25    26    1
    10    26    22    1
    11    22    21    1
    12    21     1    1
    13     1     2   ar
    14     2     3   ar
    15     3     4   ar
    16     4     5   ar
    17     5     6   ar
    18     6     7    1
    19     7     8    1
    20     8     9    1
    21     9    10   ar
    22    10    14    1
    23    14    15    2
    24    14    16   am
    25    16    18    1
    26    18    19    1
    27    18    20    1
    28    10    11   ar
    29    11    12   ar
    30    12    13   ar
    31    26    27    1
    32    27    28    1
    33    34    35   ar
    34    35    36   ar
    35    36    37   ar
    36    37    38   ar
    37    38    39   ar
    38    39    30   ar
    39    38    33   ar
    40    28    23    1
    41     6     1   ar
    42    13     9   ar
    43    13     5    1
    44    16    17    1
@<TRIPOS>MOLECULE
*****
 39 44 0 0 0
SMALL
GASTEIGER

@<TRIPOS>ATOM
      1 C          59.6782   88.4730    7.3707 C.ar    1  UNL1        0.0146
      2 C          59.3262   87.0827    6.9313 C.ar    1  UNL1       -0.0011
      3 C          59.8188   85.9016    7.7137 C.ar    1  UNL1        0.0014
      4 C          60.6633   86.1107    8.9356 C.ar    1  UNL1        0.0206
      5 C          61.0153   87.5010    9.3750 C.ar    1  UNL1        0.0989
      6 C          60.5228   88.6821    8.5926 C.ar    1  UNL1        0.1511
      7 O          60.8748   90.0725    9.0320 O.3     1  UNL1       -0.4678
      8 C          61.7193   90.2817   10.2539 C.3     1  UNL1        0.2510
      9 C          62.2119   89.1005   11.0363 C.ar    1  UNL1        0.1087
     10 C          63.0548   88.9964   12.2727 C.ar    1  UNL1        0.1516
     11 N          63.2238   87.5418   12.5974 N.ar    1  UNL1       -0.2192
     12 C          62.4853   86.7468   11.5617 C.ar    1  UNL1        0.1828
     13 N          61.8599   87.7102   10.5969 N.ar    1  UNL1       -0.2851
     14 C          63.6281   90.1453   13.0482 C.2     1  UNL1        0.2648
     15 O          63.4737   91.5469   12.5367 O.2     1  UNL1       -0.2684
     16 N          64.3559   89.8925   14.3352 N.am    1  UNL1       -0.3012
     17 H          64.4573   88.9725   14.6710 H       1  UNL1        0.1497
     18 C          64.9292   91.0413   15.1107 C.3     1  UNL1        0.0720
     19 C          64.1831   91.5995   16.2862 C.3     1  UNL1        0.0213
     20 C          66.2488   91.6322   14.7108 C.3     1  UNL1        0.0213
     21 C          59.1857   89.6542    6.5883 C.3     1  UNL1        0.0468
     22 C          60.0703   90.8509    6.4002 C.3     1  UNL1        0.0770
     23 N          60.8282   92.4616    2.2673 N.pl3   1  UNL1       -0.3046
     24 C          59.5224   92.7373    2.9518 C.3     1  UNL1        0.1081
     25 C          59.2697   92.2004    4.3295 C.3     1  UNL1        0.0938
     26 N          60.3229   91.3878    5.0226 N.3     1  UNL1       -0.2695
     27 C          61.6288   91.1121    4.3380 C.3     1  UNL1        0.0938
     28 C          61.8815   91.6490    2.9604 C.3     1  UNL1        0.1081
     29 C          65.7568   96.6238   -0.1065 C.3     1  UNL1        0.0521
     30 C          64.5878   95.7175    0.1425 C.ar    1  UNL1        0.0593
     31 C          64.3352   95.1806    1.5202 C.ar    1  UNL1        0.0148
     32 C          63.1662   94.2743    1.7692 C.ar    1  UNL1        0.0039
     33 C          62.2498   93.9048    0.6406 C.ar    1  UNL1        0.0310
     34 C          61.0809   92.9984    0.8897 C.ar    1  UNL1        0.0493
     35 C          60.1645   92.6290   -0.2390 C.ar    1  UNL1        0.0146
     36 C          60.4171   93.1658   -1.6167 C.ar    1  UNL1        0.0028
     37 C          61.5861   94.0722   -1.8657 C.ar    1  UNL1        0.0192
     38 C          62.5025   94.4417   -0.7371 C.ar    1  UNL1        0.0821
     39 N          63.6714   95.3480   -0.9862 N.ar    1  UNL1       -0.2496
@<TRIPOS>BOND
     1    29    30    1
     2    30    31   ar
     3    31    32   ar
     4    32    33   ar
     5    33    34   ar
     6    34    23    1
     7    23    24    1
     8    24    25    1
     9    25    26    1
    10    26    22    1
    11    22    21    1
    12    21     1    1
    13     1     2   ar
    14     2     3   ar
    15     3     4   ar
    16     4     5   ar
    17     5     6   ar
    18     6     7    1
    19     7     8    1
    20     8     9    1
    21     9    10   ar
    22    10    14    1
    23    14    15    2
    24    14    16   am
    25    16    18    1
    26    18    19    1
    27    18    20    1
    28    10    11   ar
    29    11    12   ar
    30    12    13   ar
    31    26    27    1
    32    27    28    1
    33    34    35   ar
    34    35    36   ar
    35    36    37   ar
    36    37    38   ar
    37    38    39   ar
    38    39    30   ar
    39    38    33   ar
    40    28    23    1
    41     6     1   ar
    42    13     9   ar
    43    13     5    1
    44    16    17    1
@<TRIPOS>MOLECULE
*****
 39 44 0 0 0
SMALL
GASTEIGER

@<TRIPOS>ATOM
      1 C          60.4251   91.7707    4.0789 C.ar    1  UNL1        0.0146
      2 C          61.6758   91.0799    4.5355 C.ar    1  UNL1       -0.0011
      3 C          62.9100   91.1235    3.6843 C.ar    1  UNL1        0.0014
      4 C          62.8936   91.8579    2.3765 C.ar    1  UNL1        0.0206
      5 C          61.6429   92.5487    1.9199 C.ar    1  UNL1        0.0989
      6 C          60.4086   92.5051    2.7711 C.ar    1  UNL1        0.1511
      7 O          59.1579   93.1959    2.3145 O.3     1  UNL1       -0.4678
      8 C          59.1414   93.9303    1.0067 C.3     1  UNL1        0.2510
      9 C          60.3758   93.9739    0.1555 C.ar    1  UNL1        0.1087
     10 C          60.6580   94.6146   -1.1711 C.ar    1  UNL1        0.1516
     11 N          62.0832   94.3198   -1.5344 N.ar    1  UNL1       -0.2192
     12 C          62.6817   93.4969   -0.4323 C.ar    1  UNL1        0.1828
     13 N          61.6265   93.2831    0.6121 N.ar    1  UNL1       -0.2851
     14 C          59.6858   95.4104   -1.9905 C.2     1  UNL1        0.2648
     15 O          59.9751   96.8467   -2.3120 O.2     1  UNL1       -0.2684
     16 N          58.4241   94.7698   -2.4885 N.am    1  UNL1       -0.3012
     17 H          58.2342   93.8271   -2.2775 H       1  UNL1        0.1497
     18 C          57.4519   95.5656   -3.3079 C.3     1  UNL1        0.0720
     19 C          56.2941   96.2493   -2.6431 C.3     1  UNL1        0.0213
     20 C          57.6374   95.6777   -4.7923 C.3     1  UNL1        0.0213
     21 C          59.1907   91.7271    4.9301 C.3     1  UNL1        0.0468
     22 C          58.6388   90.4082    5.3839 C.3     1  UNL1        0.0770
     23 N          60.6321   88.1700    8.7406 N.pl3   1  UNL1       -0.3046
     24 C          60.5557   89.6675    8.7791 C.3     1  UNL1        0.1081
     25 C          59.8912   90.4136    7.6602 C.3     1  UNL1        0.0938
     26 N          59.3032   89.6621    6.5028 N.3     1  UNL1       -0.2695
     27 C          59.3797   88.1645    6.4643 C.3     1  UNL1        0.0938
     28 C          60.0441   87.4185    7.5832 C.3     1  UNL1        0.1081
     29 C          64.5159   90.4013   13.9547 C.3     1  UNL1        0.0521
     30 C          63.7111   89.6570   12.9309 C.ar    1  UNL1        0.0593
     31 C          63.0467   90.4030   11.8120 C.ar    1  UNL1        0.0148
     32 C          62.2418   89.6587   10.7882 C.ar    1  UNL1        0.0039
     33 C          62.1014   88.1683   10.8833 C.ar    1  UNL1        0.0310
     34 C          61.2965   87.4240    9.8595 C.ar    1  UNL1        0.0493
     35 C          61.1561   85.9336    9.9546 C.ar    1  UNL1        0.0146
     36 C          61.8205   85.1876   11.0735 C.ar    1  UNL1        0.0028
     37 C          62.6253   85.9319   12.0973 C.ar    1  UNL1        0.0192
     38 C          62.7658   87.4222   12.0022 C.ar    1  UNL1        0.0821
     39 N          63.5706   88.1666   13.0260 N.ar    1  UNL1       -0.2496
@<TRIPOS>BOND
     1    29    30    1
     2    30    31   ar
     3    31    32   ar
     4    32    33   ar
     5    33    34   ar
     6    34    23    1
     7    23    24    1
     8    24    25    1
     9    25    26    1
    10    26    22    1
    11    22    21    1
    12    21     1    1
    13     1     2   ar
    14     2     3   ar
    15     3     4   ar
    16     4     5   ar
    17     5     6   ar
    18     6     7    1
    19     7     8    1
    20     8     9    1
    21     9    10   ar
    22    10    14    1
    23    14    15    2
    24    14    16   am
    25    16    18    1
    26    18    19    1
    27    18    20    1
    28    10    11   ar
    29    11    12   ar
    30    12    13   ar
    31    26    27    1
    32    27    28    1
    33    34    35   ar
    34    35    36   ar
    35    36    37   ar
    36    37    38   ar
    37    38    39   ar
    38    39    30   ar
    39    38    33   ar
    40    28    23    1
    41     6     1   ar
    42    13     9   ar
    43    13     5    1
    44    16    17    1
