@<TRIPOS>MOLECULE
*****
 42 47 0 0 0
SMALL
GASTEIGER

@<TRIPOS>ATOM
      1 N          58.6645   94.9215   -2.6168 N.3     1  UNL1       -0.2676
      2 C          60.1406   95.1450   -2.4711 C.3     1  UNL1        0.0746
      3 C          60.8630   94.6209   -1.2655 C.3     1  UNL1        0.0449
      4 C          60.1093   93.8734   -0.2057 C.3     1  UNL1        0.1391
      5 C          58.6333   93.6500   -0.3514 C.3     1  UNL1        0.0449
      6 C          57.9109   94.1740   -1.5570 C.3     1  UNL1        0.0746
      7 C          59.4925   93.1118    0.9299 C.2     1  UNL1        0.2529
      8 O          58.0449   92.7407    1.0593 O.2     1  UNL1       -0.2724
      9 N          60.5774   92.7866    1.9135 N.am    1  UNL1       -0.1907
     10 C          61.8648   93.3472    1.3857 C.2     1  UNL1        0.3219
     11 O          63.2058   93.2527    2.0508 O.2     1  UNL1       -0.2512
     12 N          61.5755   94.0188    0.0760 N.am    1  UNL1       -0.2222
     13 C          62.5765   94.7139   -0.7985 C.ar    1  UNL1        0.1453
     14 C          63.2564   93.9622   -1.9042 C.ar    1  UNL1        0.0922
     15 C          64.2574   94.6574   -2.7787 C.ar    1  UNL1        0.2259
     16 O          64.9373   93.9057   -3.8844 O.3     1  UNL1       -0.4919
     17 N          64.5787   96.1042   -2.5474 N.ar    1  UNL1       -0.1894
     18 C          63.8988   96.8559   -1.4416 C.ar    1  UNL1        0.2027
     19 N          62.8978   96.1608   -0.5672 N.ar    1  UNL1       -0.2084
     20 H          64.7367   93.0019   -4.0289 H       1  UNL1        0.2938
     21 C          60.4052   92.0332    3.1990 C.ar    1  UNL1        0.0622
     22 C          59.0852   92.0567    3.9110 C.ar    1  UNL1        0.0154
     23 C          58.9130   91.3032    5.1966 C.ar    1  UNL1        0.0014
     24 C          60.0607   90.5262    5.7700 C.ar    1  UNL1        0.0031
     25 C          61.3807   90.5027    5.0580 C.ar    1  UNL1        0.0014
     26 C          61.5529   91.2562    3.7724 C.ar    1  UNL1        0.0154
     27 C          59.8885   89.7728    7.0556 C.ar    1  UNL1        0.0386
     28 C          60.5117   90.2908    8.3178 C.ar    1  UNL1        0.1051
     29 N          60.3395   89.5373    9.6033 N.ar    1  UNL1       -0.1928
     30 C          59.5440   88.2658    9.6267 C.ar    1  UNL1        0.3167
     31 O          59.3718   87.5123   10.9122 O.3     1  UNL1       -0.4784
     32 N          58.9207   87.7478    8.3644 N.ar    1  UNL1       -0.1928
     33 C          59.0930   88.5013    7.0788 C.ar    1  UNL1        0.1051
     34 H          59.7611   87.8359   11.7007 H       1  UNL1        0.2953
     35 C          57.9421   95.4456   -3.8225 C.3     1  UNL1        0.1183
     36 C          59.7340   94.8117   -6.1435 C.3     1  UNL1        0.0323
     37 C          58.3757   94.1819   -6.0507 C.ar    1  UNL1       -0.0069
     38 C          57.9135   93.2352   -7.1184 C.ar    1  UNL1       -0.0015
     39 C          56.5553   92.6054   -7.0256 C.ar    1  UNL1        0.0203
     40 C          55.6593   92.9223   -5.8651 C.ar    1  UNL1        0.0985
     41 N          56.1216   93.8691   -4.7973 N.ar    1  UNL1       -0.2471
     42 C          57.4798   94.4989   -4.8901 C.ar    1  UNL1        0.0712
@<TRIPOS>BOND
     1    36    37    1
     2    37    38   ar
     3    38    39   ar
     4    39    40   ar
     5    40    41   ar
     6    41    42   ar
     7    42    35    1
     8    35     1    1
     9     1     2    1
    10     2     3    1
    11     3     4    1
    12     4     5    1
    13     5     6    1
    14     4     7    1
    15     7     8    2
    16     7     9   am
    17     9    21    1
    18    21    22   ar
    19    22    23   ar
    20    23    24   ar
    21    24    27    1
    22    27    28   ar
    23    28    29   ar
    24    29    30   ar
    25    30    31    1
    26    30    32   ar
    27    32    33   ar
    28    24    25   ar
    29    25    26   ar
    30     9    10   am
    31    10    11    2
    32    10    12   am
    33    12    13    1
    34    13    14   ar
    35    14    15   ar
    36    15    16    1
    37    15    17   ar
    38    17    18   ar
    39    18    19   ar
    40    42    37   ar
    41     6     1    1
    42    26    21   ar
    43    19    13   ar
    44    12     4    1
    45    33    27   ar
    46    31    34    1
    47    16    20    1
@<TRIPOS>MOLECULE
*****
 42 47 0 0 0
SMALL
GASTEIGER

@<TRIPOS>ATOM
      1 N          58.6120   94.8612   -2.6270 N.3     1  UNL1       -0.2676
      2 C          60.0852   95.1033   -2.4825 C.3     1  UNL1        0.0746
      3 C          60.8143   94.5927   -1.2752 C.3     1  UNL1        0.0449
      4 C          60.0701   93.8400   -0.2123 C.3     1  UNL1        0.1391
      5 C          58.5969   93.5979   -0.3568 C.3     1  UNL1        0.0449
      6 C          57.8678   94.1085   -1.5641 C.3     1  UNL1        0.0746
      7 C          59.4630   93.0753    0.9263 C.2     1  UNL1        0.2529
      8 O          58.0201   92.6868    1.0575 O.2     1  UNL1       -0.2724
      9 N          60.5521   92.7672    1.9108 N.am    1  UNL1       -0.1907
     10 C          61.8323   93.3415    1.3805 C.2     1  UNL1        0.3219
     11 O          63.1746   93.2661    2.0456 O.2     1  UNL1       -0.2512
     12 N          61.5345   94.0046    0.0684 N.am    1  UNL1       -0.2222
     13 C          62.5267   94.7086   -0.8090 C.ar    1  UNL1        0.1453
     14 C          63.1896   93.9704   -1.9340 C.ar    1  UNL1        0.0922
     15 C          64.1818   94.6745   -2.8113 C.ar    1  UNL1        0.2259
     16 O          64.8447   93.9363   -3.9363 O.3     1  UNL1       -0.4919
     17 N          64.5111   96.1168   -2.5638 N.ar    1  UNL1       -0.1894
     18 C          63.8482   96.8550   -1.4388 C.ar    1  UNL1        0.2027
     19 N          62.8560   96.1509   -0.5614 N.ar    1  UNL1       -0.2084
     20 H          64.6390   93.0353   -4.0910 H       1  UNL1        0.2938
     21 C          60.3894   92.0165    3.1992 C.ar    1  UNL1        0.0622
     22 C          61.5464   91.2548    3.7746 C.ar    1  UNL1        0.0154
     23 C          61.3837   90.5042    5.0630 C.ar    1  UNL1        0.0014
     24 C          60.0642   90.5152    5.7761 C.ar    1  UNL1        0.0031
     25 C          58.9072   91.2770    5.2007 C.ar    1  UNL1        0.0014
     26 C          59.0698   92.0276    3.9123 C.ar    1  UNL1        0.0154
     27 C          59.9016   89.7646    7.0645 C.ar    1  UNL1        0.0386
     28 C          59.1876   88.4455    7.0790 C.ar    1  UNL1        0.1051
     29 N          59.0250   87.6948    8.3675 N.ar    1  UNL1       -0.1928
     30 C          59.5763   88.2633    9.6415 C.ar    1  UNL1        0.3167
     31 O          59.4137   87.5127   10.9299 O.3     1  UNL1       -0.4784
     32 N          60.2903   89.5824    9.6269 N.ar    1  UNL1       -0.1928
     33 C          60.4529   90.3331    8.3384 C.ar    1  UNL1        0.1051
     34 H          58.9677   86.6887   10.9389 H       1  UNL1        0.2953
     35 C          57.8828   95.3717   -3.8344 C.3     1  UNL1        0.1183
     36 C          55.9972   94.8367   -6.1056 C.3     1  UNL1        0.0323
     37 C          55.5000   95.5097   -4.8607 C.ar    1  UNL1       -0.0069
     38 C          54.0600   95.9152   -4.7514 C.ar    1  UNL1       -0.0015
     39 C          53.5628   96.5882   -3.5065 C.ar    1  UNL1        0.0203
     40 C          54.5055   96.8557   -2.3709 C.ar    1  UNL1        0.0985
     41 N          55.9456   96.4502   -2.4802 N.ar    1  UNL1       -0.2471
     42 C          56.4428   95.7772   -3.7251 C.ar    1  UNL1        0.0712
@<TRIPOS>BOND
     1    36    37    1
     2    37    38   ar
     3    38    39   ar
     4    39    40   ar
     5    40    41   ar
     6    41    42   ar
     7    42    35    1
     8    35     1    1
     9     1     2    1
    10     2     3    1
    11     3     4    1
    12     4     5    1
    13     5     6    1
    14     4     7    1
    15     7     8    2
    16     7     9   am
    17     9    21    1
    18    21    22   ar
    19    22    23   ar
    20    23    24   ar
    21    24    27    1
    22    27    28   ar
    23    28    29   ar
    24    29    30   ar
    25    30    31    1
    26    30    32   ar
    27    32    33   ar
    28    24    25   ar
    29    25    26   ar
    30     9    10   am
    31    10    11    2
    32    10    12   am
    33    12    13    1
    34    13    14   ar
    35    14    15   ar
    36    15    16    1
    37    15    17   ar
    38    17    18   ar
    39    18    19   ar
    40    42    37   ar
    41     6     1    1
    42    26    21   ar
    43    19    13   ar
    44    12     4    1
    45    33    27   ar
    46    31    34    1
    47    16    20    1
