@<TRIPOS>MOLECULE
*****
 15 17 0 0 0
SMALL
GASTEIGER

@<TRIPOS>ATOM
      1 C          64.3688   83.6346   15.0312 C.3     1  UNL1        0.2210
      2 C          63.4169   82.7167   14.3228 C.3     1  UNL1        0.0983
      3 N          62.2782   81.9708   14.9527 N.3     1  UNL1       -0.2955
      4 C          61.5942   81.1767   13.8794 C.3     1  UNL1        0.0686
      5 C          62.3104   81.4320   12.5863 C.3     1  UNL1        0.0172
      6 C          63.2087   81.8726   11.4688 C.3     1  UNL1        0.0029
      7 C          63.4368   82.3838   12.8604 C.3     1  UNL1        0.0195
      8 H          61.6200   82.6301   15.3681 H       1  UNL1        0.1233
      9 O          64.6004   85.0220   14.5104 O.3     1  UNL1       -0.4724
     10 C          62.8936   87.1901   17.3628 C.ar    1  UNL1        0.0238
     11 C          63.0667   88.5735   16.8093 C.ar    1  UNL1        0.0991
     12 N          63.7510   88.7730   15.4895 N.ar    1  UNL1       -0.2391
     13 C          64.2623   87.5892   14.7232 C.ar    1  UNL1        0.1356
     14 C          64.0892   86.2059   15.2767 C.ar    1  UNL1        0.1577
     15 C          63.4048   86.0064   16.5965 C.ar    1  UNL1        0.0401
@<TRIPOS>BOND
     1    10    11   ar
     2    11    12   ar
     3    12    13   ar
     4    13    14   ar
     5    14     9    1
     6     9     1    1
     7     2     1    1
     8     2     3    1
     9     3     4    1
    10     5     4    1
    11     5     6    1
    12     7     6    1
    13    14    15   ar
    14    15    10   ar
    15     7     2    1
    16     7     5    1
    17     3     8    1
@<TRIPOS>MOLECULE
*****
 15 17 0 0 0
SMALL
GASTEIGER

@<TRIPOS>ATOM
      1 C          62.7855   83.6225   15.3998 C.3     1  UNL1        0.2210
      2 C          62.6670   82.5285   14.3803 C.3     1  UNL1        0.0983
      3 N          62.2224   81.1207   14.6456 N.3     1  UNL1       -0.2955
      4 C          62.2529   80.3723   13.3458 C.3     1  UNL1        0.0686
      5 C          62.7163   81.3178   12.2774 C.3     1  UNL1        0.0172
      6 C          63.1942   82.4700   11.4443 C.3     1  UNL1        0.0029
      7 C          62.9722   82.6503   12.9168 C.3     1  UNL1        0.0195
      8 H          61.2744   81.1221   15.0220 H       1  UNL1        0.1233
      9 O          63.9907   84.5154   15.4051 O.3     1  UNL1       -0.4724
     10 C          64.2567   88.4386   14.8687 C.ar    1  UNL1        0.0238
     11 C          63.5101   88.9401   16.0691 C.ar    1  UNL1        0.0991
     12 N          62.9238   87.9667   17.0482 N.ar    1  UNL1       -0.2391
     13 C          63.0839   86.4918   16.8269 C.ar    1  UNL1        0.1356
     14 C          63.8305   85.9903   15.6265 C.ar    1  UNL1        0.1577
     15 C          64.4169   86.9637   14.6474 C.ar    1  UNL1        0.0401
@<TRIPOS>BOND
     1    10    11   ar
     2    11    12   ar
     3    12    13   ar
     4    13    14   ar
     5    14     9    1
     6     9     1    1
     7     2     1    1
     8     2     3    1
     9     3     4    1
    10     5     4    1
    11     5     6    1
    12     7     6    1
    13    14    15   ar
    14    15    10   ar
    15     7     2    1
    16     7     5    1
    17     3     8    1
@<TRIPOS>MOLECULE
*****
 15 17 0 0 0
SMALL
GASTEIGER

@<TRIPOS>ATOM
      1 C          62.9885   85.7092   12.4085 C.3     1  UNL1        0.2210
      2 C          62.1402   86.1113   11.2386 C.3     1  UNL1        0.0983
      3 N          60.8746   86.9139   11.3018 N.3     1  UNL1       -0.2955
      4 C          60.3607   87.0800    9.9023 C.3     1  UNL1        0.0686
      5 C          61.3088   86.3800    8.9743 C.3     1  UNL1        0.0172
      6 C          62.4125   85.6117    8.3098 C.3     1  UNL1        0.0029
      7 C          62.4086   85.7813    9.8001 C.3     1  UNL1        0.0195
      8 H          61.0648   87.8284   11.7115 H       1  UNL1        0.1233
      9 O          62.4227   84.8181   13.4742 O.3     1  UNL1       -0.4724
     10 C          62.8876   81.2314   11.8401 C.ar    1  UNL1        0.0238
     11 C          62.6649   80.3465   13.0306 C.ar    1  UNL1        0.0991
     12 N          62.3614   80.9521   14.3690 N.ar    1  UNL1       -0.2391
     13 C          62.2807   82.4426   14.5168 C.ar    1  UNL1        0.1356
     14 C          62.5034   83.3275   13.3264 C.ar    1  UNL1        0.1577
     15 C          62.8069   82.7219   11.9880 C.ar    1  UNL1        0.0401
@<TRIPOS>BOND
     1    10    11   ar
     2    11    12   ar
     3    12    13   ar
     4    13    14   ar
     5    14     9    1
     6     9     1    1
     7     2     1    1
     8     2     3    1
     9     3     4    1
    10     5     4    1
    11     5     6    1
    12     7     6    1
    13    14    15   ar
    14    15    10   ar
    15     7     2    1
    16     7     5    1
    17     3     8    1
@<TRIPOS>MOLECULE
*****
 15 17 0 0 0
SMALL
GASTEIGER

@<TRIPOS>ATOM
      1 C          64.1496   90.8462   13.1203 C.3     1  UNL1        0.2210
      2 C          63.8822   89.9487   14.2921 C.3     1  UNL1        0.0983
      3 N          63.2129   90.3480   15.5737 N.3     1  UNL1       -0.2955
      4 C          63.1543   89.1404   16.4617 C.3     1  UNL1        0.0686
      5 C          63.7874   87.9949   15.7289 C.3     1  UNL1        0.0172
      6 C          64.4624   87.0611   14.7684 C.3     1  UNL1        0.0029
      7 C          64.2374   88.4945   14.3880 C.3     1  UNL1        0.0195
      8 H          62.2686   90.6824   15.3815 H       1  UNL1        0.1233
      9 O          64.7418   92.2071   13.3376 O.3     1  UNL1       -0.4724
     10 C          67.4773   92.7855   16.1540 C.ar    1  UNL1        0.0238
     11 C          68.7398   92.6243   15.3603 C.ar    1  UNL1        0.0991
     12 N          68.6697   92.3239   13.8924 N.ar    1  UNL1       -0.2391
     13 C          67.3370   92.1849   13.2181 C.ar    1  UNL1        0.1356
     14 C          66.0745   92.3461   14.0118 C.ar    1  UNL1        0.1577
     15 C          66.1446   92.6465   15.4798 C.ar    1  UNL1        0.0401
@<TRIPOS>BOND
     1    10    11   ar
     2    11    12   ar
     3    12    13   ar
     4    13    14   ar
     5    14     9    1
     6     9     1    1
     7     2     1    1
     8     2     3    1
     9     3     4    1
    10     5     4    1
    11     5     6    1
    12     7     6    1
    13    14    15   ar
    14    15    10   ar
    15     7     2    1
    16     7     5    1
    17     3     8    1
@<TRIPOS>MOLECULE
*****
 15 17 0 0 0
SMALL
GASTEIGER

@<TRIPOS>ATOM
      1 C          65.3646   93.0777   11.5583 C.3     1  UNL1        0.2210
      2 C          66.2742   93.5213   10.4511 C.3     1  UNL1        0.0983
      3 N          66.1314   94.7766    9.6424 N.3     1  UNL1       -0.2955
      4 C          67.2552   94.8186    8.6496 C.3     1  UNL1        0.0686
      5 C          68.0923   93.5893    8.8448 C.3     1  UNL1        0.0172
      6 C          68.7221   92.2947    9.2659 C.3     1  UNL1        0.0029
      7 C          67.4860   92.7875    9.9581 C.3     1  UNL1        0.0195
      8 H          66.1803   95.5905   10.2552 H       1  UNL1        0.1233
      9 O          65.7763   91.9537   12.4622 O.3     1  UNL1       -0.4724
     10 C          67.0372   92.8193   16.1243 C.ar    1  UNL1        0.0238
     11 C          68.5237   92.7507   15.9359 C.ar    1  UNL1        0.0991
     12 N          69.0945   92.4164   14.5896 N.ar    1  UNL1       -0.2391
     13 C          68.1787   92.1507   13.4317 C.ar    1  UNL1        0.1356
     14 C          66.6922   92.2193   13.6201 C.ar    1  UNL1        0.1577
     15 C          66.1215   92.5537   14.9664 C.ar    1  UNL1        0.0401
@<TRIPOS>BOND
     1    10    11   ar
     2    11    12   ar
     3    12    13   ar
     4    13    14   ar
     5    14     9    1
     6     9     1    1
     7     2     1    1
     8     2     3    1
     9     3     4    1
    10     5     4    1
    11     5     6    1
    12     7     6    1
    13    14    15   ar
    14    15    10   ar
    15     7     2    1
    16     7     5    1
    17     3     8    1
@<TRIPOS>MOLECULE
*****
 15 17 0 0 0
SMALL
GASTEIGER

@<TRIPOS>ATOM
      1 C          64.0940   91.2290   14.7565 C.3     1  UNL1        0.2210
      2 C          65.4370   91.8492   15.0055 C.3     1  UNL1        0.0983
      3 N          65.8037   92.7194   16.1710 N.3     1  UNL1       -0.2955
      4 C          67.2423   93.1161   16.0186 C.3     1  UNL1        0.0686
      5 C          67.7646   92.4910   14.7589 C.3     1  UNL1        0.0172
      6 C          67.9962   91.7507   13.4751 C.3     1  UNL1        0.0029
      7 C          66.6488   91.7080   14.1329 C.3     1  UNL1        0.0195
      8 H          65.6773   92.2033   17.0416 H       1  UNL1        0.1233
      9 O          63.4309   90.4194   15.8311 O.3     1  UNL1       -0.4724
     10 C          64.4602   86.7436   14.7454 C.ar    1  UNL1        0.0238
     11 C          63.8448   85.9385   15.8514 C.ar    1  UNL1        0.0991
     12 N          63.0914   86.6271   16.9506 N.ar    1  UNL1       -0.2391
     13 C          62.9535   88.1207   16.9439 C.ar    1  UNL1        0.1356
     14 C          63.5689   88.9257   15.8379 C.ar    1  UNL1        0.1577
     15 C          64.3222   88.2372   14.7387 C.ar    1  UNL1        0.0401
@<TRIPOS>BOND
     1    10    11   ar
     2    11    12   ar
     3    12    13   ar
     4    13    14   ar
     5    14     9    1
     6     9     1    1
     7     2     1    1
     8     2     3    1
     9     3     4    1
    10     5     4    1
    11     5     6    1
    12     7     6    1
    13    14    15   ar
    14    15    10   ar
    15     7     2    1
    16     7     5    1
    17     3     8    1
@<TRIPOS>MOLECULE
*****
 15 17 0 0 0
SMALL
GASTEIGER

@<TRIPOS>ATOM
      1 C          61.8948   87.3095   10.9116 C.3     1  UNL1        0.2210
      2 C          62.5398   88.5594   11.4331 C.3     1  UNL1        0.0983
      3 N          63.1246   88.7446   12.8019 N.3     1  UNL1       -0.2955
      4 C          63.6594   90.1432   12.8921 C.3     1  UNL1        0.0686
      5 C          63.4050   90.8223   11.5790 C.3     1  UNL1        0.0172
      6 C          63.0221   91.2267   10.1862 C.3     1  UNL1        0.0029
      7 C          62.7130   89.8435   10.6773 C.3     1  UNL1        0.0195
      8 H          63.8799   88.0751   12.9491 H       1  UNL1        0.1233
      9 O          61.6704   86.1431   11.8275 O.3     1  UNL1       -0.4724
     10 C          63.9522   83.2430   10.3670 C.ar    1  UNL1        0.0238
     11 C          64.3994   82.5704   11.6310 C.ar    1  UNL1        0.0991
     12 N          63.9370   83.0887   12.9604 N.ar    1  UNL1       -0.2391
     13 C          63.0273   84.2795   13.0260 C.ar    1  UNL1        0.1356
     14 C          62.5801   84.9521   11.7620 C.ar    1  UNL1        0.1577
     15 C          63.0426   84.4339   10.4326 C.ar    1  UNL1        0.0401
@<TRIPOS>BOND
     1    10    11   ar
     2    11    12   ar
     3    12    13   ar
     4    13    14   ar
     5    14     9    1
     6     9     1    1
     7     2     1    1
     8     2     3    1
     9     3     4    1
    10     5     4    1
    11     5     6    1
    12     7     6    1
    13    14    15   ar
    14    15    10   ar
    15     7     2    1
    16     7     5    1
    17     3     8    1
@<TRIPOS>MOLECULE
*****
 15 17 0 0 0
SMALL
GASTEIGER

@<TRIPOS>ATOM
      1 C          62.0810   86.0773   11.2668 C.3     1  UNL1        0.2210
      2 C          61.5057   87.4585   11.1596 C.3     1  UNL1        0.0983
      3 N          60.1022   87.8583   11.5065 N.3     1  UNL1       -0.2955
      4 C          59.9619   89.3292   11.2479 C.3     1  UNL1        0.0686
      5 C          61.2788   89.8384   10.7412 C.3     1  UNL1        0.0172
      6 C          62.6865   90.0492   10.2679 C.3     1  UNL1        0.0029
      7 C          62.2329   88.6822   10.6866 C.3     1  UNL1        0.0195
      8 H          59.9192   87.6607   12.4903 H       1  UNL1        0.1233
      9 O          62.7456   85.6383   12.5378 O.3     1  UNL1       -0.4724
     10 C          62.7661   81.6811   12.2370 C.ar    1  UNL1        0.0238
     11 C          62.7569   81.2868   13.6842 C.ar    1  UNL1        0.0991
     12 N          62.7439   82.3429   14.7493 N.ar    1  UNL1       -0.2391
     13 C          62.7401   83.7934   14.3672 C.ar    1  UNL1        0.1356
     14 C          62.7494   84.1877   12.9200 C.ar    1  UNL1        0.1577
     15 C          62.7624   83.1316   11.8549 C.ar    1  UNL1        0.0401
@<TRIPOS>BOND
     1    10    11   ar
     2    11    12   ar
     3    12    13   ar
     4    13    14   ar
     5    14     9    1
     6     9     1    1
     7     2     1    1
     8     2     3    1
     9     3     4    1
    10     5     4    1
    11     5     6    1
    12     7     6    1
    13    14    15   ar
    14    15    10   ar
    15     7     2    1
    16     7     5    1
    17     3     8    1
@<TRIPOS>MOLECULE
*****
 15 17 0 0 0
SMALL
GASTEIGER

@<TRIPOS>ATOM
      1 C          64.0661   90.3283   13.8560 C.3     1  UNL1        0.2210
      2 C          63.5155   90.2310   12.4641 C.3     1  UNL1        0.0983
      3 N          63.5085   91.3271   11.4402 N.3     1  UNL1       -0.2955
      4 C          62.8639   90.7941   10.1949 C.3     1  UNL1        0.0686
      5 C          62.4725   89.3685   10.4494 C.3     1  UNL1        0.0172
      6 C          62.2042   87.9944   10.9877 C.3     1  UNL1        0.0029
      7 C          62.8753   89.0205   11.8518 C.3     1  UNL1        0.0195
      8 H          64.4650   91.6177   11.2376 H       1  UNL1        0.1233
      9 O          64.4299   91.6668   14.4268 O.3     1  UNL1       -0.4724
     10 C          67.7676   92.8992   16.1850 C.ar    1  UNL1        0.0238
     11 C          68.7529   92.7412   15.0652 C.ar    1  UNL1        0.0991
     12 N          68.2972   92.2250   13.7325 N.ar    1  UNL1       -0.2391
     13 C          66.8563   91.8669   13.5197 C.ar    1  UNL1        0.1356
     14 C          65.8710   92.0250   14.6396 C.ar    1  UNL1        0.1577
     15 C          66.3266   92.5411   15.9722 C.ar    1  UNL1        0.0401
@<TRIPOS>BOND
     1    10    11   ar
     2    11    12   ar
     3    12    13   ar
     4    13    14   ar
     5    14     9    1
     6     9     1    1
     7     2     1    1
     8     2     3    1
     9     3     4    1
    10     5     4    1
    11     5     6    1
    12     7     6    1
    13    14    15   ar
    14    15    10   ar
    15     7     2    1
    16     7     5    1
    17     3     8    1
