@<TRIPOS>MOLECULE
*****
 42 46 0 0 0
SMALL
GASTEIGER

@<TRIPOS>ATOM
      1 C          59.5151   92.4273    4.1399 C.3     1  UNL1        0.0758
      2 C          58.1068   92.0756    4.5181 C.3     1  UNL1        0.0370
      3 C          57.8396   90.8840    5.3892 C.3     1  UNL1        0.0741
      4 N          58.9806   90.0442    5.8820 N.3     1  UNL1       -0.2688
      5 C          60.3888   90.3959    5.5037 C.3     1  UNL1        0.0741
      6 C          60.6561   91.5875    4.6327 C.3     1  UNL1        0.0370
      7 O          59.5145   92.1332    1.1543 O.2     1  UNL1       -0.2528
      8 C          59.7821   93.4718    1.7760 C.2     1  UNL1        0.3009
      9 N          59.7824   93.6189    3.2688 N.am    1  UNL1       -0.2905
     10 N          60.0494   94.6634    0.9049 N.am    1  UNL1       -0.2854
     11 H          59.9580   94.4974    3.6768 H       1  UNL1        0.1509
     12 H          60.2251   95.5420    1.3130 H       1  UNL1        0.1513
     13 C          60.0491   94.5164   -0.5878 C.3     1  UNL1        0.1115
     14 C          58.8035   94.0756   -1.2977 C.ar    1  UNL1       -0.0031
     15 C          57.4790   94.6773   -0.9319 C.ar    1  UNL1       -0.0026
     16 C          56.2333   94.2365   -1.6419 C.ar    1  UNL1       -0.0003
     17 C          56.3121   93.1941   -2.7176 C.ar    1  UNL1       -0.0000
     18 C          57.6365   92.5925   -3.0834 C.ar    1  UNL1       -0.0003
     19 C          58.8822   93.0332   -2.3734 C.ar    1  UNL1       -0.0026
     20 C          61.2945   94.8101   -1.3706 C.3     1  UNL1        0.0966
     21 N          62.6345   94.7468   -0.6997 N.3     1  UNL1       -0.2667
     22 C          63.5305   95.9498   -0.6989 C.3     1  UNL1        0.1047
     23 C          64.8706   95.8864   -0.0279 C.3     1  UNL1        0.1595
     24 O          65.3147   94.6201    0.6423 O.3     1  UNL1       -0.3508
     25 C          64.4187   93.4171    0.6415 C.3     1  UNL1        0.1595
     26 C          63.0787   93.4804   -0.0295 C.3     1  UNL1        0.1047
     27 C          58.7133   88.8526    6.7531 C.3     1  UNL1        0.1007
     28 C          59.6736   88.4934    7.8479 C.ar    1  UNL1        0.0129
     29 C          60.2261   89.4320    8.8792 C.ar    1  UNL1        0.0176
     30 C          61.1440   88.6512    9.7723 C.ar    1  UNL1        0.0799
     31 N          61.1589   87.2299    9.2929 N.ar    1  UNL1       -0.3038
     32 C          60.2501   87.1324    8.1036 C.ar    1  UNL1        0.0772
     33 C          61.9446   86.1039    9.8969 C.ar    1  UNL1        0.0640
     34 C          61.8237   85.8063   11.3620 C.ar    1  UNL1        0.0175
     35 C          62.6094   84.6803   11.9660 C.ar    1  UNL1        0.0053
     36 C          63.5160   83.8519   11.1048 C.ar    1  UNL1        0.0715
     37 C          63.6369   84.1494    9.6396 C.ar    1  UNL1        0.0053
     38 C          62.8512   85.2754    9.0356 C.ar    1  UNL1        0.0175
     39 C          64.3016   82.7259   11.7087 C.3     1  UNL1        0.4186
     40 F          65.0874   81.5999   12.3128 F       1  UNL1       -0.1659
     41 F          64.0521   81.8953   10.4849 F       1  UNL1       -0.1659
     42 F          64.5512   83.5565   12.9327 F       1  UNL1       -0.1659
@<TRIPOS>BOND
     1     7     8    2
     2     8     9   am
     3     9     1    1
     4     1     2    1
     5     2     3    1
     6     3     4    1
     7     4    27    1
     8    27    28    1
     9    28    29   ar
    10    29    30   ar
    11    30    31   ar
    12    31    33    1
    13    33    34   ar
    14    34    35   ar
    15    35    36   ar
    16    36    39    1
    17    39    40    1
    18    39    41    1
    19    39    42    1
    20    36    37   ar
    21    37    38   ar
    22    31    32   ar
    23     4     5    1
    24     5     6    1
    25     8    10   am
    26    10    13    1
    27    13    20    1
    28    20    21    1
    29    21    22    1
    30    22    23    1
    31    23    24    1
    32    24    25    1
    33    25    26    1
    34    13    14    1
    35    14    15   ar
    36    15    16   ar
    37    16    17   ar
    38    17    18   ar
    39    18    19   ar
    40     6     1    1
    41    26    21    1
    42    19    14   ar
    43    32    28   ar
    44    38    33   ar
    45     9    11    1
    46    10    12    1
@<TRIPOS>MOLECULE
*****
 42 46 0 0 0
SMALL
GASTEIGER

@<TRIPOS>ATOM
      1 C          59.4416   92.4492    4.2550 C.3     1  UNL1        0.0758
      2 C          58.0509   92.0794    4.6781 C.3     1  UNL1        0.0370
      3 C          57.8189   90.8408    5.4917 C.3     1  UNL1        0.0741
      4 N          58.9777   89.9720    5.8822 N.3     1  UNL1       -0.2688
      5 C          60.3684   90.3419    5.4592 C.3     1  UNL1        0.0741
      6 C          60.6004   91.5805    4.6456 C.3     1  UNL1        0.0370
      7 O          60.9064   92.2755    1.6427 O.2     1  UNL1       -0.2528
      8 C          60.4061   93.6010    2.1353 C.2     1  UNL1        0.3009
      9 N          59.6737   93.6879    3.4414 N.am    1  UNL1       -0.2905
     10 N          60.6381   94.8397    1.3216 N.am    1  UNL1       -0.2854
     11 H          59.3453   94.5579    3.7647 H       1  UNL1        0.1509
     12 H          60.3097   95.7097    1.6449 H       1  UNL1        0.1513
     13 C          61.3705   94.7528    0.0155 C.3     1  UNL1        0.1115
     14 C          62.8030   95.1890   -0.0716 C.ar    1  UNL1       -0.0031
     15 C          63.5333   95.6168    1.1669 C.ar    1  UNL1       -0.0026
     16 C          64.9658   96.0531    1.0798 C.ar    1  UNL1       -0.0003
     17 C          65.6681   96.0615   -0.2456 C.ar    1  UNL1       -0.0000
     18 C          64.9378   95.6337   -1.4840 C.ar    1  UNL1       -0.0003
     19 C          63.5052   95.1974   -1.3970 C.ar    1  UNL1       -0.0026
     20 C          60.6704   94.2296   -1.2036 C.3     1  UNL1        0.0966
     21 N          59.1899   93.9908   -1.1737 N.3     1  UNL1       -0.2667
     22 C          58.6578   92.5926   -1.0636 C.3     1  UNL1        0.1047
     23 C          57.1772   92.3538   -1.0337 C.3     1  UNL1        0.1595
     24 O          56.2287   93.5130   -1.1138 O.3     1  UNL1       -0.3508
     25 C          56.7608   94.9112   -1.2239 C.3     1  UNL1        0.1595
     26 C          58.2413   95.1501   -1.2538 C.3     1  UNL1        0.1047
     27 C          58.7456   88.7334    6.6959 C.3     1  UNL1        0.1007
     28 C          59.6849   88.3818    7.8112 C.ar    1  UNL1        0.0129
     29 C          60.1952   89.3212    8.8633 C.ar    1  UNL1        0.0176
     30 C          61.1045   88.5491    9.7726 C.ar    1  UNL1        0.0799
     31 N          61.1563   87.1323    9.2824 N.ar    1  UNL1       -0.3038
     32 C          60.2790   87.0290    8.0702 C.ar    1  UNL1        0.0772
     33 C          61.9467   86.0152    9.8967 C.ar    1  UNL1        0.0640
     34 C          62.8589   85.1845    9.0436 C.ar    1  UNL1        0.0175
     35 C          63.6492   84.0673    9.6578 C.ar    1  UNL1        0.0053
     36 C          63.5274   83.7809   11.1251 C.ar    1  UNL1        0.0715
     37 C          62.6152   84.6115   11.9782 C.ar    1  UNL1        0.0053
     38 C          61.8249   85.7287   11.3640 C.ar    1  UNL1        0.0175
     39 C          64.3178   82.6637   11.7393 C.3     1  UNL1        0.4186
     40 F          65.1082   81.5466   12.3536 F       1  UNL1       -0.1659
     41 F          64.0477   81.8108   10.5353 F       1  UNL1       -0.1659
     42 F          64.5878   83.5167   12.9433 F       1  UNL1       -0.1659
@<TRIPOS>BOND
     1     7     8    2
     2     8     9   am
     3     9     1    1
     4     1     2    1
     5     2     3    1
     6     3     4    1
     7     4    27    1
     8    27    28    1
     9    28    29   ar
    10    29    30   ar
    11    30    31   ar
    12    31    33    1
    13    33    34   ar
    14    34    35   ar
    15    35    36   ar
    16    36    39    1
    17    39    40    1
    18    39    41    1
    19    39    42    1
    20    36    37   ar
    21    37    38   ar
    22    31    32   ar
    23     4     5    1
    24     5     6    1
    25     8    10   am
    26    10    13    1
    27    13    20    1
    28    20    21    1
    29    21    22    1
    30    22    23    1
    31    23    24    1
    32    24    25    1
    33    25    26    1
    34    13    14    1
    35    14    15   ar
    36    15    16   ar
    37    16    17   ar
    38    17    18   ar
    39    18    19   ar
    40     6     1    1
    41    26    21    1
    42    19    14   ar
    43    32    28   ar
    44    38    33   ar
    45     9    11    1
    46    10    12    1
@<TRIPOS>MOLECULE
*****
 42 46 0 0 0
SMALL
GASTEIGER

@<TRIPOS>ATOM
      1 C          61.8921   86.4312    8.8996 C.3     1  UNL1        0.0758
      2 C          60.8987   85.9338    7.8918 C.3     1  UNL1        0.0370
      3 C          59.8046   86.8384    7.4076 C.3     1  UNL1        0.0741
      4 N          59.7039   88.2405    7.9311 N.3     1  UNL1       -0.2688
      5 C          60.6973   88.7379    8.9388 C.3     1  UNL1        0.0741
      6 C          61.7914   87.8333    9.4231 C.3     1  UNL1        0.0370
      7 O          61.8334   85.3761   11.7073 O.2     1  UNL1       -0.2528
      8 C          62.9569   84.9990   10.7877 C.2     1  UNL1        0.3009
      9 N          62.9862   85.5266    9.3839 N.am    1  UNL1       -0.2905
     10 N          64.0511   84.0944   11.2720 N.am    1  UNL1       -0.2854
     11 H          63.7236   85.2791    8.7803 H       1  UNL1        0.1509
     12 H          64.7885   83.8469   10.6685 H       1  UNL1        0.1513
     13 C          64.0217   83.5668   12.6758 C.3     1  UNL1        0.1115
     14 C          63.1459   82.3987   13.0198 C.ar    1  UNL1       -0.0031
     15 C          63.3287   81.0896   12.3105 C.ar    1  UNL1       -0.0026
     16 C          62.4529   79.9215   12.6545 C.ar    1  UNL1       -0.0003
     17 C          61.3943   80.0624   13.7079 C.ar    1  UNL1       -0.0000
     18 C          61.2115   81.3713   14.4172 C.ar    1  UNL1       -0.0003
     19 C          62.0873   82.5395   14.0732 C.ar    1  UNL1       -0.0026
     20 C          64.8682   84.2074   13.7356 C.3     1  UNL1        0.0966
     21 N          64.2932   85.2868   14.6040 N.3     1  UNL1       -0.2667
     22 C          63.5236   84.9249   15.8397 C.3     1  UNL1        0.1047
     23 C          62.9485   86.0044   16.7081 C.3     1  UNL1        0.1595
     24 O          63.1431   87.4457   16.3409 O.3     1  UNL1       -0.3508
     25 C          63.9126   87.8075   15.1052 C.3     1  UNL1        0.1595
     26 C          64.4877   86.7281   14.2368 C.3     1  UNL1        0.1047
     27 C          58.6097   89.1452    7.4468 C.3     1  UNL1        0.1007
     28 C          58.8609   90.0785    6.2997 C.ar    1  UNL1        0.0129
     29 C          57.8297   90.9143    5.6011 C.ar    1  UNL1        0.0176
     30 C          58.5188   91.6922    4.5194 C.ar    1  UNL1        0.0799
     31 N          59.9759   91.3371    4.5495 N.ar    1  UNL1       -0.3038
     32 C          60.1873   90.3398    5.6498 C.ar    1  UNL1        0.0772
     33 C          61.0355   91.8835    3.6392 C.ar    1  UNL1        0.0640
     34 C          62.4032   91.2679    3.6260 C.ar    1  UNL1        0.0175
     35 C          63.4628   91.8143    2.7156 C.ar    1  UNL1        0.0053
     36 C          63.1547   92.9762    1.8185 C.ar    1  UNL1        0.0715
     37 C          61.7869   93.5918    1.8317 C.ar    1  UNL1        0.0053
     38 C          60.7273   93.0455    2.7420 C.ar    1  UNL1        0.0175
     39 C          64.2143   93.5225    0.9082 C.3     1  UNL1        0.4186
     40 F          65.2740   94.0689   -0.0021 F       1  UNL1       -0.1659
     41 F          63.3648   93.1873   -0.2817 F       1  UNL1       -0.1659
     42 F          65.0638   93.8579    2.0982 F       1  UNL1       -0.1659
@<TRIPOS>BOND
     1     7     8    2
     2     8     9   am
     3     9     1    1
     4     1     2    1
     5     2     3    1
     6     3     4    1
     7     4    27    1
     8    27    28    1
     9    28    29   ar
    10    29    30   ar
    11    30    31   ar
    12    31    33    1
    13    33    34   ar
    14    34    35   ar
    15    35    36   ar
    16    36    39    1
    17    39    40    1
    18    39    41    1
    19    39    42    1
    20    36    37   ar
    21    37    38   ar
    22    31    32   ar
    23     4     5    1
    24     5     6    1
    25     8    10   am
    26    10    13    1
    27    13    20    1
    28    20    21    1
    29    21    22    1
    30    22    23    1
    31    23    24    1
    32    24    25    1
    33    25    26    1
    34    13    14    1
    35    14    15   ar
    36    15    16   ar
    37    16    17   ar
    38    17    18   ar
    39    18    19   ar
    40     6     1    1
    41    26    21    1
    42    19    14   ar
    43    32    28   ar
    44    38    33   ar
    45     9    11    1
    46    10    12    1
@<TRIPOS>MOLECULE
*****
 42 46 0 0 0
SMALL
GASTEIGER

@<TRIPOS>ATOM
      1 C          61.8902   87.5284    9.7376 C.3     1  UNL1        0.0758
      2 C          61.4411   88.9585    9.7925 C.3     1  UNL1        0.0370
      3 C          60.3496   89.4372    8.8818 C.3     1  UNL1        0.0741
      4 N          59.7072   88.4859    7.9163 N.3     1  UNL1       -0.2688
      5 C          60.1563   87.0558    7.8615 C.3     1  UNL1        0.0741
      6 C          61.2478   86.5770    8.7721 C.3     1  UNL1        0.0370
      7 O          61.2371   85.7200   12.0406 O.2     1  UNL1       -0.2528
      8 C          62.6552   86.1454   11.7997 C.2     1  UNL1        0.3009
      9 N          62.9818   87.0496   10.6483 N.am    1  UNL1       -0.2905
     10 N          63.7468   85.6666   12.7104 N.am    1  UNL1       -0.2854
     11 H          63.9126   87.3288   10.4903 H       1  UNL1        0.1509
     12 H          64.6776   85.9458   12.5524 H       1  UNL1        0.1513
     13 C          63.4203   84.7625   13.8619 C.3     1  UNL1        0.1115
     14 C          62.9953   83.3468   13.6066 C.ar    1  UNL1       -0.0031
     15 C          63.4992   82.6192   12.3955 C.ar    1  UNL1       -0.0026
     16 C          63.0743   81.2035   12.1403 C.ar    1  UNL1       -0.0003
     17 C          62.1455   80.5153   13.0962 C.ar    1  UNL1       -0.0000
     18 C          61.6416   81.2428   14.3073 C.ar    1  UNL1       -0.0003
     19 C          62.0666   82.6586   14.5625 C.ar    1  UNL1       -0.0026
     20 C          63.5186   85.2741   15.2685 C.3     1  UNL1        0.0966
     21 N          63.5837   86.7502   15.5269 N.3     1  UNL1       -0.2667
     22 C          62.9865   87.3193   16.7797 C.3     1  UNL1        0.1047
     23 C          63.0516   88.7955   17.0380 C.3     1  UNL1        0.1595
     24 O          63.7139   89.7025   16.0437 O.3     1  UNL1       -0.3508
     25 C          64.3112   89.1333   14.7909 C.3     1  UNL1        0.1595
     26 C          64.2461   87.6572   14.5325 C.3     1  UNL1        0.1047
     27 C          58.6156   88.9647    7.0056 C.3     1  UNL1        0.1007
     28 C          58.8926   90.0515    6.0096 C.ar    1  UNL1        0.0129
     29 C          57.9201   91.0988    5.5542 C.ar    1  UNL1        0.0176
     30 C          58.6172   91.9764    4.5573 C.ar    1  UNL1        0.0799
     31 N          60.0206   91.4715    4.3966 N.ar    1  UNL1       -0.3038
     32 C          60.1907   90.2818    5.2942 C.ar    1  UNL1        0.0772
     33 C          61.0695   92.0540    3.4963 C.ar    1  UNL1        0.0640
     34 C          60.7367   93.2198    2.6132 C.ar    1  UNL1        0.0175
     35 C          61.7856   93.8023    1.7130 C.ar    1  UNL1        0.0053
     36 C          63.1673   93.2189    1.6959 C.ar    1  UNL1        0.0715
     37 C          63.5002   92.0531    2.5790 C.ar    1  UNL1        0.0053
     38 C          62.4513   91.4706    3.4792 C.ar    1  UNL1        0.0175
     39 C          64.2163   93.8014    0.7956 C.3     1  UNL1        0.4186
     40 F          65.2653   94.3838   -0.1046 F       1  UNL1       -0.1659
     41 F          63.3766   95.0309    0.6128 F       1  UNL1       -0.1659
     42 F          65.0560   92.5719    0.9784 F       1  UNL1       -0.1659
@<TRIPOS>BOND
     1     7     8    2
     2     8     9   am
     3     9     1    1
     4     1     2    1
     5     2     3    1
     6     3     4    1
     7     4    27    1
     8    27    28    1
     9    28    29   ar
    10    29    30   ar
    11    30    31   ar
    12    31    33    1
    13    33    34   ar
    14    34    35   ar
    15    35    36   ar
    16    36    39    1
    17    39    40    1
    18    39    41    1
    19    39    42    1
    20    36    37   ar
    21    37    38   ar
    22    31    32   ar
    23     4     5    1
    24     5     6    1
    25     8    10   am
    26    10    13    1
    27    13    20    1
    28    20    21    1
    29    21    22    1
    30    22    23    1
    31    23    24    1
    32    24    25    1
    33    25    26    1
    34    13    14    1
    35    14    15   ar
    36    15    16   ar
    37    16    17   ar
    38    17    18   ar
    39    18    19   ar
    40     6     1    1
    41    26    21    1
    42    19    14   ar
    43    32    28   ar
    44    38    33   ar
    45     9    11    1
    46    10    12    1
@<TRIPOS>MOLECULE
*****
 42 46 0 0 0
SMALL
GASTEIGER

@<TRIPOS>ATOM
      1 C          59.5094   92.3537    4.1120 C.3     1  UNL1        0.0758
      2 C          58.1166   92.0140    4.5533 C.3     1  UNL1        0.0370
      3 C          57.8831   90.8488    5.4686 C.3     1  UNL1        0.0741
      4 N          59.0423   90.0233    5.9426 N.3     1  UNL1       -0.2688
      5 C          60.4351   90.3630    5.5013 C.3     1  UNL1        0.0741
      6 C          60.6686   91.5282    4.5860 C.3     1  UNL1        0.0370
      7 O          59.6599   91.9251    1.1466 O.2     1  UNL1       -0.2528
      8 C          59.8182   93.3046    1.7140 C.2     1  UNL1        0.3009
      9 N          59.7429   93.5189    3.1967 N.am    1  UNL1       -0.2905
     10 N          60.0518   94.4698    0.7987 N.am    1  UNL1       -0.2854
     11 H          59.8469   94.4243    3.5691 H       1  UNL1        0.1509
     12 H          60.1557   95.3752    1.1711 H       1  UNL1        0.1513
     13 C          60.1270   94.2555   -0.6840 C.3     1  UNL1        0.1115
     14 C          58.8897   93.9012   -1.4543 C.ar    1  UNL1       -0.0031
     15 C          59.0001   93.1388   -2.7415 C.ar    1  UNL1       -0.0026
     16 C          57.7627   92.7845   -3.5118 C.ar    1  UNL1       -0.0003
     17 C          56.4150   93.1925   -2.9950 C.ar    1  UNL1       -0.0000
     18 C          56.3045   93.9548   -1.7079 C.ar    1  UNL1       -0.0003
     19 C          57.5419   94.3092   -0.9375 C.ar    1  UNL1       -0.0026
     20 C          61.4396   94.3956   -1.3964 C.3     1  UNL1        0.0966
     21 N          62.6762   94.7539   -0.6267 N.3     1  UNL1       -0.2667
     22 C          63.5301   93.6727   -0.0337 C.3     1  UNL1        0.1047
     23 C          64.7667   94.0310    0.7361 C.3     1  UNL1        0.1595
     24 O          65.1494   95.4706    0.9126 O.3     1  UNL1       -0.3508
     25 C          64.2955   96.5518    0.3196 C.3     1  UNL1        0.1595
     26 C          63.0589   96.1935   -0.4501 C.3     1  UNL1        0.1047
     27 C          58.8088   88.8581    6.8579 C.3     1  UNL1        0.1007
     28 C          59.8292   88.5062    7.8995 C.ar    1  UNL1        0.0129
     29 C          60.3353   87.1283    8.2078 C.ar    1  UNL1        0.0176
     30 C          61.3416   87.2410    9.3145 C.ar    1  UNL1        0.0799
     31 N          61.4573   88.6886    9.6902 N.ar    1  UNL1       -0.3038
     32 C          60.5226   89.4705    8.8157 C.ar    1  UNL1        0.0772
     33 C          62.3508   89.2548   10.7537 C.ar    1  UNL1        0.0640
     34 C          62.7236   88.4200   11.9428 C.ar    1  UNL1        0.0175
     35 C          63.6171   88.9862   13.0062 C.ar    1  UNL1        0.0053
     36 C          64.1379   90.3872   12.8806 C.ar    1  UNL1        0.0715
     37 C          63.7651   91.2221   11.6915 C.ar    1  UNL1        0.0053
     38 C          62.8716   90.6559   10.6280 C.ar    1  UNL1        0.0175
     39 C          65.0314   90.9534   13.9441 C.3     1  UNL1        0.4186
     40 F          65.9250   91.5197   15.0075 F       1  UNL1       -0.1659
     41 F          65.0455   89.6245   14.6397 F       1  UNL1       -0.1659
     42 F          65.0174   92.2823   13.2484 F       1  UNL1       -0.1659
@<TRIPOS>BOND
     1     7     8    2
     2     8     9   am
     3     9     1    1
     4     1     2    1
     5     2     3    1
     6     3     4    1
     7     4    27    1
     8    27    28    1
     9    28    29   ar
    10    29    30   ar
    11    30    31   ar
    12    31    33    1
    13    33    34   ar
    14    34    35   ar
    15    35    36   ar
    16    36    39    1
    17    39    40    1
    18    39    41    1
    19    39    42    1
    20    36    37   ar
    21    37    38   ar
    22    31    32   ar
    23     4     5    1
    24     5     6    1
    25     8    10   am
    26    10    13    1
    27    13    20    1
    28    20    21    1
    29    21    22    1
    30    22    23    1
    31    23    24    1
    32    24    25    1
    33    25    26    1
    34    13    14    1
    35    14    15   ar
    36    15    16   ar
    37    16    17   ar
    38    17    18   ar
    39    18    19   ar
    40     6     1    1
    41    26    21    1
    42    19    14   ar
    43    32    28   ar
    44    38    33   ar
    45     9    11    1
    46    10    12    1
@<TRIPOS>MOLECULE
*****
 42 46 0 0 0
SMALL
GASTEIGER

@<TRIPOS>ATOM
      1 C          60.3936   89.4165   11.1316 C.3     1  UNL1        0.0758
      2 C          60.1797   90.6021   10.2381 C.3     1  UNL1        0.0370
      3 C          59.7568   90.4007    8.8131 C.3     1  UNL1        0.0741
      4 N          59.5477   89.0137    8.2817 N.3     1  UNL1       -0.2688
      5 C          59.7616   87.8280    9.1753 C.3     1  UNL1        0.0741
      6 C          60.1845   88.0294   10.6002 C.3     1  UNL1        0.0370
      7 O          63.3012   89.3099   11.8627 O.2     1  UNL1       -0.2528
      8 C          62.2703   89.5646   12.9222 C.2     1  UNL1        0.3009
      9 N          60.8165   89.6179   12.5567 N.am    1  UNL1       -0.2905
     10 N          62.6932   89.7660   14.3472 N.am    1  UNL1       -0.2854
     11 H          60.1399   89.7850   13.2520 H       1  UNL1        0.1509
     12 H          62.0167   89.9331   15.0426 H       1  UNL1        0.1513
     13 C          64.1470   89.7127   14.7127 C.3     1  UNL1        0.1115
     14 C          64.9769   90.9615   14.6718 C.ar    1  UNL1       -0.0031
     15 C          65.3163   91.6785   15.9449 C.ar    1  UNL1       -0.0026
     16 C          66.1462   92.9273   15.9040 C.ar    1  UNL1       -0.0003
     17 C          66.6366   93.4592   14.5900 C.ar    1  UNL1       -0.0000
     18 C          66.2972   92.7423   13.3170 C.ar    1  UNL1       -0.0003
     19 C          65.4673   91.4934   13.3578 C.ar    1  UNL1       -0.0026
     20 C          64.7709   88.4106   15.1192 C.3     1  UNL1        0.0966
     21 N          63.9224   87.3251   15.7123 N.3     1  UNL1       -0.2667
     22 C          63.1091   87.5970   16.9430 C.3     1  UNL1        0.1047
     23 C          62.2605   86.5115   17.5361 C.3     1  UNL1        0.1595
     24 O          62.2254   85.1542   16.8985 O.3     1  UNL1       -0.3508
     25 C          63.0387   84.8823   15.6679 C.3     1  UNL1        0.1595
     26 C          63.8872   85.9678   15.0748 C.3     1  UNL1        0.1047
     27 C          59.1247   88.8123    6.8567 C.3     1  UNL1        0.1007
     28 C          59.1704   89.9596    5.8915 C.ar    1  UNL1        0.0129
     29 C          58.0215   90.8533    5.5294 C.ar    1  UNL1        0.0176
     30 C          58.5140   91.8607    4.5331 C.ar    1  UNL1        0.0799
     31 N          59.9674   91.5895    4.2795 N.ar    1  UNL1       -0.3038
     32 C          60.3730   90.4146    5.1191 C.ar    1  UNL1        0.0772
     33 C          60.8585   92.3584    3.3496 C.ar    1  UNL1        0.0640
     34 C          60.3087   93.5156    2.5696 C.ar    1  UNL1        0.0175
     35 C          61.1999   94.2844    1.6398 C.ar    1  UNL1        0.0053
     36 C          62.6409   93.8960    1.4898 C.ar    1  UNL1        0.0715
     37 C          63.1908   92.7388    2.2698 C.ar    1  UNL1        0.0053
     38 C          62.2996   91.9699    3.1997 C.ar    1  UNL1        0.0175
     39 C          63.5320   94.6648    0.5599 C.3     1  UNL1        0.4186
     40 F          64.4232   95.4337   -0.3700 F       1  UNL1       -0.1659
     41 F          64.4533   93.4847    0.4671 F       1  UNL1       -0.1659
     42 F          62.6107   95.8450    0.6527 F       1  UNL1       -0.1659
@<TRIPOS>BOND
     1     7     8    2
     2     8     9   am
     3     9     1    1
     4     1     2    1
     5     2     3    1
     6     3     4    1
     7     4    27    1
     8    27    28    1
     9    28    29   ar
    10    29    30   ar
    11    30    31   ar
    12    31    33    1
    13    33    34   ar
    14    34    35   ar
    15    35    36   ar
    16    36    39    1
    17    39    40    1
    18    39    41    1
    19    39    42    1
    20    36    37   ar
    21    37    38   ar
    22    31    32   ar
    23     4     5    1
    24     5     6    1
    25     8    10   am
    26    10    13    1
    27    13    20    1
    28    20    21    1
    29    21    22    1
    30    22    23    1
    31    23    24    1
    32    24    25    1
    33    25    26    1
    34    13    14    1
    35    14    15   ar
    36    15    16   ar
    37    16    17   ar
    38    17    18   ar
    39    18    19   ar
    40     6     1    1
    41    26    21    1
    42    19    14   ar
    43    32    28   ar
    44    38    33   ar
    45     9    11    1
    46    10    12    1
@<TRIPOS>MOLECULE
*****
 42 46 0 0 0
SMALL
GASTEIGER

@<TRIPOS>ATOM
      1 C          59.5052   92.3342    4.1474 C.3     1  UNL1        0.0758
      2 C          58.1170   92.0099    4.6139 C.3     1  UNL1        0.0370
      3 C          57.8865   90.8433    5.5282 C.3     1  UNL1        0.0741
      4 N          59.0441   90.0011    5.9759 N.3     1  UNL1       -0.2688
      5 C          60.4323   90.3254    5.5094 C.3     1  UNL1        0.0741
      6 C          60.6628   91.4919    4.5951 C.3     1  UNL1        0.0370
      7 O          60.4935   91.8768    1.3520 O.2     1  UNL1       -0.2528
      8 C          60.2300   93.2721    1.8354 C.2     1  UNL1        0.3009
      9 N          59.7358   93.5008    3.2331 N.am    1  UNL1       -0.2905
     10 N          60.4606   94.4387    0.9211 N.am    1  UNL1       -0.2854
     11 H          59.5628   94.4166    3.5504 H       1  UNL1        0.1509
     12 H          60.2876   95.3545    1.2384 H       1  UNL1        0.1513
     13 C          60.9547   94.2100   -0.4765 C.3     1  UNL1        0.1115
     14 C          62.2796   94.7682   -0.9043 C.ar    1  UNL1       -0.0031
     15 C          62.4373   95.3602   -2.2735 C.ar    1  UNL1       -0.0026
     16 C          63.7622   95.9184   -2.7013 C.ar    1  UNL1       -0.0003
     17 C          64.9295   95.8846   -1.7599 C.ar    1  UNL1       -0.0000
     18 C          64.7719   95.2927   -0.3907 C.ar    1  UNL1       -0.0003
     19 C          63.4469   94.7344    0.0371 C.ar    1  UNL1       -0.0026
     20 C          60.1240   93.4232   -1.4464 C.3     1  UNL1        0.0966
     21 N          58.7166   93.8474   -1.7450 N.3     1  UNL1       -0.2667
     22 C          57.5653   93.0020   -1.2870 C.3     1  UNL1        0.1047
     23 C          56.1578   93.4263   -1.5856 C.3     1  UNL1        0.1595
     24 O          55.9017   94.6959   -2.3422 O.3     1  UNL1       -0.3508
     25 C          57.0530   95.5412   -2.8003 C.3     1  UNL1        0.1595
     26 C          58.4604   95.1170   -2.5017 C.3     1  UNL1        0.1047
     27 C          58.8135   88.8344    6.8902 C.3     1  UNL1        0.1007
     28 C          59.8175   88.5062    7.9552 C.ar    1  UNL1        0.0129
     29 C          60.2703   87.1307    8.3461 C.ar    1  UNL1        0.0176
     30 C          61.2777   87.2703    9.4487 C.ar    1  UNL1        0.0799
     31 N          61.4475   88.7321    9.7392 N.ar    1  UNL1       -0.3038
     32 C          60.5451   89.4959    8.8161 C.ar    1  UNL1        0.0772
     33 C          62.3596   89.3258   10.7715 C.ar    1  UNL1        0.0640
     34 C          62.7206   88.5377   11.9956 C.ar    1  UNL1        0.0175
     35 C          63.6327   89.1313   13.0279 C.ar    1  UNL1        0.0053
     36 C          64.1838   90.5131   12.8361 C.ar    1  UNL1        0.0715
     37 C          63.8228   91.3013   11.6120 C.ar    1  UNL1        0.0053
     38 C          62.9107   90.7076   10.5797 C.ar    1  UNL1        0.0175
     39 C          65.0958   91.1067   13.8684 C.3     1  UNL1        0.4186
     40 F          66.0080   91.7003   14.9007 F       1  UNL1       -0.1659
     41 F          65.0083   92.4369   13.1808 F       1  UNL1       -0.1659
     42 F          65.1835   89.7765   14.5560 F       1  UNL1       -0.1659
@<TRIPOS>BOND
     1     7     8    2
     2     8     9   am
     3     9     1    1
     4     1     2    1
     5     2     3    1
     6     3     4    1
     7     4    27    1
     8    27    28    1
     9    28    29   ar
    10    29    30   ar
    11    30    31   ar
    12    31    33    1
    13    33    34   ar
    14    34    35   ar
    15    35    36   ar
    16    36    39    1
    17    39    40    1
    18    39    41    1
    19    39    42    1
    20    36    37   ar
    21    37    38   ar
    22    31    32   ar
    23     4     5    1
    24     5     6    1
    25     8    10   am
    26    10    13    1
    27    13    20    1
    28    20    21    1
    29    21    22    1
    30    22    23    1
    31    23    24    1
    32    24    25    1
    33    25    26    1
    34    13    14    1
    35    14    15   ar
    36    15    16   ar
    37    16    17   ar
    38    17    18   ar
    39    18    19   ar
    40     6     1    1
    41    26    21    1
    42    19    14   ar
    43    32    28   ar
    44    38    33   ar
    45     9    11    1
    46    10    12    1
@<TRIPOS>MOLECULE
*****
 42 46 0 0 0
SMALL
GASTEIGER

@<TRIPOS>ATOM
      1 C          61.9202   89.4949   10.8948 C.3     1  UNL1        0.0758
      2 C          60.7706   90.4302   10.6633 C.3     1  UNL1        0.0370
      3 C          59.8477   90.2110    9.5014 C.3     1  UNL1        0.0741
      4 N          60.0744   89.0565    8.5710 N.3     1  UNL1       -0.2688
      5 C          61.2240   88.1212    8.8025 C.3     1  UNL1        0.0741
      6 C          62.1469   88.3404    9.9644 C.3     1  UNL1        0.0370
      7 O          63.8327   91.8062   10.8762 O.2     1  UNL1       -0.2528
      8 C          63.7994   90.8698   12.0475 C.2     1  UNL1        0.3009
      9 N          62.8432   89.7141   12.0568 N.am    1  UNL1       -0.2905
     10 N          64.7224   91.0890   13.2095 N.am    1  UNL1       -0.2854
     11 H          62.8213   89.0995   12.8256 H       1  UNL1        0.1509
     12 H          64.7005   90.4744   13.9782 H       1  UNL1        0.1513
     13 C          65.6786   92.2446   13.2001 C.3     1  UNL1        0.1115
     14 C          66.7847   92.3110   14.2111 C.ar    1  UNL1       -0.0031
     15 C          66.4827   92.6965   15.6290 C.ar    1  UNL1       -0.0026
     16 C          67.5887   92.7629   16.6400 C.ar    1  UNL1       -0.0003
     17 C          68.9968   92.4438   16.2332 C.ar    1  UNL1       -0.0000
     18 C          69.2988   92.0582   14.8154 C.ar    1  UNL1       -0.0003
     19 C          68.1927   91.9918   13.8043 C.ar    1  UNL1       -0.0026
     20 C          65.5288   93.3338   12.1798 C.3     1  UNL1        0.0966
     21 N          66.5114   93.4454   11.0520 N.3     1  UNL1       -0.2667
     22 C          66.7720   94.7773   10.4133 C.3     1  UNL1        0.1047
     23 C          67.7547   94.8889    9.2854 C.3     1  UNL1        0.1595
     24 O          68.4767   93.6684    8.7963 O.3     1  UNL1       -0.3508
     25 C          68.2161   92.3365    9.4350 C.3     1  UNL1        0.1595
     26 C          67.2335   92.2249   10.5628 C.3     1  UNL1        0.1047
     27 C          59.1514   88.8373    7.4090 C.3     1  UNL1        0.1007
     28 C          59.0747   89.8549    6.3097 C.ar    1  UNL1        0.0129
     29 C          57.8279   90.5266    5.8155 C.ar    1  UNL1        0.0176
     30 C          58.2139   91.4664    4.7120 C.ar    1  UNL1        0.0799
     31 N          59.6994   91.3756    4.5242 N.ar    1  UNL1       -0.3038
     32 C          60.2314   90.3796    5.5116 C.ar    1  UNL1        0.0772
     33 C          60.5104   92.1455    3.5245 C.ar    1  UNL1        0.0640
     34 C          61.9723   91.8529    3.3598 C.ar    1  UNL1        0.0175
     35 C          62.7834   92.6228    2.3601 C.ar    1  UNL1        0.0053
     36 C          62.1325   93.6853    1.5251 C.ar    1  UNL1        0.0715
     37 C          60.6706   93.9779    1.6896 C.ar    1  UNL1        0.0053
     38 C          59.8595   93.2080    2.6893 C.ar    1  UNL1        0.0175
     39 C          62.9435   94.4552    0.5253 C.3     1  UNL1        0.4186
     40 F          63.7546   95.2252   -0.4743 F       1  UNL1       -0.1659
     41 F          62.7363   93.3642   -0.4830 F       1  UNL1       -0.1659
     42 F          63.1508   95.5462    1.5337 F       1  UNL1       -0.1659
@<TRIPOS>BOND
     1     7     8    2
     2     8     9   am
     3     9     1    1
     4     1     2    1
     5     2     3    1
     6     3     4    1
     7     4    27    1
     8    27    28    1
     9    28    29   ar
    10    29    30   ar
    11    30    31   ar
    12    31    33    1
    13    33    34   ar
    14    34    35   ar
    15    35    36   ar
    16    36    39    1
    17    39    40    1
    18    39    41    1
    19    39    42    1
    20    36    37   ar
    21    37    38   ar
    22    31    32   ar
    23     4     5    1
    24     5     6    1
    25     8    10   am
    26    10    13    1
    27    13    20    1
    28    20    21    1
    29    21    22    1
    30    22    23    1
    31    23    24    1
    32    24    25    1
    33    25    26    1
    34    13    14    1
    35    14    15   ar
    36    15    16   ar
    37    16    17   ar
    38    17    18   ar
    39    18    19   ar
    40     6     1    1
    41    26    21    1
    42    19    14   ar
    43    32    28   ar
    44    38    33   ar
    45     9    11    1
    46    10    12    1
@<TRIPOS>MOLECULE
*****
 42 46 0 0 0
SMALL
GASTEIGER

@<TRIPOS>ATOM
      1 C          59.3973   92.1323    4.5188 C.3     1  UNL1        0.0758
      2 C          57.9585   91.8004    4.7823 C.3     1  UNL1        0.0370
      3 C          57.6053   90.6061    5.6182 C.3     1  UNL1        0.0741
      4 N          58.6909   89.7437    6.1906 N.3     1  UNL1       -0.2688
      5 C          60.1298   90.0756    5.9270 C.3     1  UNL1        0.0741
      6 C          60.4830   91.2699    5.0911 C.3     1  UNL1        0.0370
      7 O          60.6345   91.7558    1.8118 O.2     1  UNL1       -0.2528
      8 C          60.3692   93.1384    2.3294 C.2     1  UNL1        0.3009
      9 N          59.7506   93.3267    3.6828 N.am    1  UNL1       -0.2905
     10 N          60.7224   94.3328    1.4934 N.am    1  UNL1       -0.2854
     11 H          59.5764   94.2342    4.0225 H       1  UNL1        0.1509
     12 H          60.5483   95.2403    1.8331 H       1  UNL1        0.1513
     13 C          61.3410   94.1445    0.1400 C.3     1  UNL1        0.1115
     14 C          62.6816   94.7458   -0.1621 C.ar    1  UNL1       -0.0031
     15 C          62.9365   95.3771   -1.4987 C.ar    1  UNL1       -0.0026
     16 C          64.2771   95.9784   -1.8008 C.ar    1  UNL1       -0.0003
     17 C          65.3628   95.9483   -0.7663 C.ar    1  UNL1       -0.0000
     18 C          65.1080   95.3170    0.5703 C.ar    1  UNL1       -0.0003
     19 C          63.7674   94.7157    0.8724 C.ar    1  UNL1       -0.0026
     20 C          60.6190   93.3550   -0.9114 C.3     1  UNL1        0.0966
     21 N          59.1869   93.6657   -1.2312 N.3     1  UNL1       -0.2667
     22 C          58.1264   92.6288   -1.0074 C.3     1  UNL1        0.1047
     23 C          56.6942   92.9395   -1.3274 C.3     1  UNL1        0.1595
     24 O          56.3225   94.2872   -1.8710 O.3     1  UNL1       -0.3508
     25 C          57.3830   95.3242   -2.0949 C.3     1  UNL1        0.1595
     26 C          58.8152   95.0134   -1.7750 C.3     1  UNL1        0.1047
     27 C          58.3377   88.5493    7.0265 C.3     1  UNL1        0.1007
     28 C          59.4210   87.7487    7.6862 C.ar    1  UNL1        0.0129
     29 C          60.1401   86.5764    7.0874 C.ar    1  UNL1        0.0176
     30 C          61.1390   86.0829    8.0917 C.ar    1  UNL1        0.0799
     31 N          61.0374   86.9503    9.3113 N.ar    1  UNL1       -0.3038
     32 C          59.9756   87.9798    9.0607 C.ar    1  UNL1        0.0772
     33 C          61.8541   86.8124   10.5618 C.ar    1  UNL1        0.0640
     34 C          62.1434   85.4516   11.1224 C.ar    1  UNL1        0.0175
     35 C          62.9601   85.3137   12.3730 C.ar    1  UNL1        0.0053
     36 C          63.4875   86.5366   13.0629 C.ar    1  UNL1        0.0715
     37 C          63.1983   87.8975   12.5024 C.ar    1  UNL1        0.0053
     38 C          62.3815   88.0354   11.2518 C.ar    1  UNL1        0.0175
     39 C          64.3043   86.3987   14.3135 C.3     1  UNL1        0.4186
     40 F          65.1210   86.2609   15.5641 F       1  UNL1       -0.1659
     41 F          64.0341   84.9233   14.3272 F       1  UNL1       -0.1659
     42 F          64.5745   87.8742   14.2998 F       1  UNL1       -0.1659
@<TRIPOS>BOND
     1     7     8    2
     2     8     9   am
     3     9     1    1
     4     1     2    1
     5     2     3    1
     6     3     4    1
     7     4    27    1
     8    27    28    1
     9    28    29   ar
    10    29    30   ar
    11    30    31   ar
    12    31    33    1
    13    33    34   ar
    14    34    35   ar
    15    35    36   ar
    16    36    39    1
    17    39    40    1
    18    39    41    1
    19    39    42    1
    20    36    37   ar
    21    37    38   ar
    22    31    32   ar
    23     4     5    1
    24     5     6    1
    25     8    10   am
    26    10    13    1
    27    13    20    1
    28    20    21    1
    29    21    22    1
    30    22    23    1
    31    23    24    1
    32    24    25    1
    33    25    26    1
    34    13    14    1
    35    14    15   ar
    36    15    16   ar
    37    16    17   ar
    38    17    18   ar
    39    18    19   ar
    40     6     1    1
    41    26    21    1
    42    19    14   ar
    43    32    28   ar
    44    38    33   ar
    45     9    11    1
    46    10    12    1
