@<TRIPOS>MOLECULE
*****
 38 42 0 0 0
SMALL
GASTEIGER

@<TRIPOS>ATOM
      1 C          64.0627   90.5953   12.6926 C.ar    1  UNL1        0.0175
      2 C          64.1731   89.1559   13.0998 C.ar    1  UNL1        0.0012
      3 C          63.2902   88.1256   12.4601 C.ar    1  UNL1       -0.0029
      4 C          62.2968   88.5350   11.4133 C.ar    1  UNL1       -0.0085
      5 C          62.1865   89.9743   11.0062 C.ar    1  UNL1       -0.0246
      6 C          63.0694   91.0046   11.6458 C.ar    1  UNL1       -0.0030
      7 C          61.2708   90.5916    9.9910 C.3     1  UNL1        0.0261
      8 C          60.2392   89.9217    9.1323 C.3     1  UNL1        0.0047
      9 C          59.8687   88.4694    9.0767 C.3     1  UNL1        0.0024
     10 C          60.4381   87.3280    9.8660 C.3     1  UNL1        0.0241
     11 C          61.5188   87.3572   10.9059 C.3     1  UNL1        0.0941
     12 C          66.1927   93.9020   13.2208 C.ar    1  UNL1        0.2207
     13 N          66.7116   93.6859   14.6115 N.ar    1  UNL1       -0.2120
     14 C          66.3474   92.4396   15.3626 C.ar    1  UNL1        0.1034
     15 C          65.4645   91.4093   14.7229 C.ar    1  UNL1        0.0399
     16 C          64.9457   91.6255   13.3323 C.ar    1  UNL1        0.0857
     17 N          65.3098   92.8718   12.5812 N.ar    1  UNL1       -0.2135
     18 N          66.5568   95.1483   12.4697 N.pl3   1  UNL1       -0.2801
     19 H          66.7583   95.9777   12.9605 H       1  UNL1        0.1552
     20 C          66.0306   96.5554    7.4077 C.3     1  UNL1        0.1538
     21 N          66.3720   95.7779    8.6442 N.ar    1  UNL1       -0.2460
     22 C          66.1140   96.2104   10.0571 C.ar    1  UNL1        0.1114
     23 C          66.6139   95.1310   10.9709 C.ar    1  UNL1        0.0906
     24 C          67.1809   94.0314   10.1228 C.ar    1  UNL1        0.1363
     25 N          67.0314   94.4311    8.6847 N.ar    1  UNL1       -0.1662
     26 N          61.8674   86.0336   11.5195 N.am    1  UNL1       -0.2974
     27 C          62.6853   85.0411   10.7474 C.2     1  UNL1        0.2672
     28 O          63.1545   85.3723    9.3617 O.2     1  UNL1       -0.2684
     29 H          61.5595   85.8163   12.4290 H       1  UNL1        0.1500
     30 C          63.0340   83.7175   11.3611 C.ar    1  UNL1        0.1762
     31 C          62.0857   82.7985   12.0725 C.ar    1  UNL1        0.1221
     32 N          62.8577   81.5935   12.5222 N.ar    1  UNL1       -0.2338
     33 N          64.2830   81.7680   12.0887 N.ar    1  UNL1       -0.0638
     34 N          64.3920   83.0806   11.3711 N.ar    1  UNL1       -0.1241
     35 C          62.3019   80.4202   13.2734 C.3     1  UNL1        0.0883
     36 C          62.7227   79.5078   12.1597 C.3     1  UNL1        0.0245
     37 C          61.8810   81.3326   14.3872 C.3     1  UNL1        0.0245
     38 C          61.7460   79.2469   14.0246 C.3     1  UNL1        0.0245
@<TRIPOS>BOND
     1    20    21    1
     2    21    22   ar
     3    22    23   ar
     4    23    18    1
     5    18    12    1
     6    12    13   ar
     7    13    14   ar
     8    14    15   ar
     9    15    16   ar
    10    16     1    1
    11     1     2   ar
    12     2     3   ar
    13     3     4   ar
    14     4     5   ar
    15     5     6   ar
    16     5     7    1
    17     7     8    1
    18     8     9    1
    19     9    10    1
    20    10    11    1
    21    11    26    1
    22    26    27   am
    23    27    28    2
    24    27    30    1
    25    30    31   ar
    26    31    32   ar
    27    32    35    1
    28    35    36    1
    29    35    37    1
    30    35    38    1
    31    32    33   ar
    32    33    34   ar
    33    16    17   ar
    34    23    24   ar
    35    24    25   ar
    36    25    21   ar
    37    17    12   ar
    38     6     1   ar
    39    34    30   ar
    40    11     4    1
    41    18    19    1
    42    26    29    1
@<TRIPOS>MOLECULE
*****
 38 42 0 0 0
SMALL
GASTEIGER

@<TRIPOS>ATOM
      1 C          61.7178   86.7919   10.3718 C.ar    1  UNL1        0.0175
      2 C          62.4170   88.0081   10.9029 C.ar    1  UNL1        0.0012
      3 C          63.1854   87.9299   12.1888 C.ar    1  UNL1       -0.0029
      4 C          63.2545   86.6355   12.9436 C.ar    1  UNL1       -0.0085
      5 C          62.5553   85.4194   12.4125 C.ar    1  UNL1       -0.0246
      6 C          61.7870   85.4975   11.1267 C.ar    1  UNL1       -0.0030
      7 C          62.4974   84.0414   13.0026 C.3     1  UNL1        0.0261
      8 C          63.1244   83.5395   14.2695 C.3     1  UNL1        0.0047
      9 C          63.9641   84.2914   15.2591 C.3     1  UNL1        0.0024
     10 C          64.3843   85.7310   15.2264 C.3     1  UNL1        0.0241
     11 C          64.0685   86.7742   14.1959 C.3     1  UNL1        0.0941
     12 C          59.3389   88.1534    7.5018 C.ar    1  UNL1        0.2207
     13 N          59.4128   87.0269    6.5141 N.ar    1  UNL1       -0.2120
     14 C          60.2551   85.8220    6.8124 C.ar    1  UNL1        0.1034
     15 C          61.0234   85.7437    8.0983 C.ar    1  UNL1        0.0399
     16 C          60.9495   86.8702    9.0859 C.ar    1  UNL1        0.0857
     17 N          60.1073   88.0750    8.7877 N.ar    1  UNL1       -0.2135
     18 N          58.4966   89.3582    7.2035 N.pl3   1  UNL1       -0.2801
     19 H          57.6885   89.5380    7.7363 H       1  UNL1        0.1552
     20 C          61.3535   92.0003    3.6343 C.3     1  UNL1        0.1538
     21 N          60.1989   91.5035    4.4530 N.ar    1  UNL1       -0.2460
     22 C          60.2703   90.4834    5.5503 C.ar    1  UNL1        0.1114
     23 C          58.8857   90.2892    6.0936 C.ar    1  UNL1        0.0906
     24 C          57.9585   91.1893    5.3319 C.ar    1  UNL1        0.1363
     25 N          58.7700   91.9399    4.3180 N.ar    1  UNL1       -0.1662
     26 N          64.6425   88.1362   14.4515 N.am    1  UNL1       -0.2974
     27 C          63.9300   89.0916   15.3623 C.2     1  UNL1        0.2672
     28 O          62.6434   88.6849   16.0176 O.2     1  UNL1       -0.2684
     29 H          65.4869   88.4031   14.0214 H       1  UNL1        0.1500
     30 C          64.5041   90.4537   15.6179 C.ar    1  UNL1        0.1762
     31 C          65.8549   90.9372   15.1807 C.ar    1  UNL1        0.1221
     32 N          66.0139   92.3536   15.6481 N.ar    1  UNL1       -0.2338
     33 N          64.7612   92.7455   16.3741 N.ar    1  UNL1       -0.0638
     34 N          63.8280   91.5712   16.3555 N.ar    1  UNL1       -0.1241
     35 C          67.2147   93.2252   15.4280 C.3     1  UNL1        0.0883
     36 C          66.5308   93.8727   14.2605 C.3     1  UNL1        0.0245
     37 C          67.8987   92.5778   16.5955 C.3     1  UNL1        0.0245
     38 C          68.4155   94.0967   15.2079 C.3     1  UNL1        0.0245
@<TRIPOS>BOND
     1    20    21    1
     2    21    22   ar
     3    22    23   ar
     4    23    18    1
     5    18    12    1
     6    12    13   ar
     7    13    14   ar
     8    14    15   ar
     9    15    16   ar
    10    16     1    1
    11     1     2   ar
    12     2     3   ar
    13     3     4   ar
    14     4     5   ar
    15     5     6   ar
    16     5     7    1
    17     7     8    1
    18     8     9    1
    19     9    10    1
    20    10    11    1
    21    11    26    1
    22    26    27   am
    23    27    28    2
    24    27    30    1
    25    30    31   ar
    26    31    32   ar
    27    32    35    1
    28    35    36    1
    29    35    37    1
    30    35    38    1
    31    32    33   ar
    32    33    34   ar
    33    16    17   ar
    34    23    24   ar
    35    24    25   ar
    36    25    21   ar
    37    17    12   ar
    38     6     1   ar
    39    34    30   ar
    40    11     4    1
    41    18    19    1
    42    26    29    1
