@<TRIPOS>MOLECULE
*****
 33 36 0 0 0
SMALL
GASTEIGER

@<TRIPOS>ATOM
      1 C          62.2679   87.9163   11.7850 C.ar    1  UNL1        0.1460
      2 N          62.8243   86.6588   12.3842 N.ar    1  UNL1       -0.2144
      3 C          62.6103   85.3424   11.6978 C.ar    1  UNL1        0.1390
      4 C          61.8398   85.2835   10.4121 C.ar    1  UNL1        0.0360
      5 C          61.2834   86.5410    9.8129 C.ar    1  UNL1        0.0184
      6 C          60.4886   86.7924    8.5659 C.ar    1  UNL1       -0.0086
      7 C          60.0483   85.7542    7.5768 C.3     1  UNL1        0.0322
      8 C          60.2115   88.2642    8.4816 C.ar    1  UNL1        0.0336
      9 C          59.4454   88.9562    7.3933 C.3     1  UNL1        0.0497
     10 N          60.8350   88.9224    9.6765 N.ar    1  UNL1       -0.3262
     11 C          61.4974   87.8574   10.4994 C.ar    1  UNL1        0.0913
     12 N          63.1667   84.0848   12.2970 N.am    1  UNL1       -0.2392
     13 C          64.0041   83.1626   11.4613 C.3     1  UNL1        0.1317
     14 C          64.5605   81.9051   12.0605 C.3     1  UNL1        0.1647
     15 O          64.2795   81.5697   13.4953 O.3     1  UNL1       -0.3426
     16 C          63.4421   82.4920   14.3309 C.3     1  UNL1        0.2275
     17 C          62.8857   83.7495   13.7317 C.2     1  UNL1        0.2607
     18 O          62.0483   84.6718   14.5674 O.2     1  UNL1       -0.2718
     19 N          62.4820   89.2328   12.4715 N.pl3   1  UNL1       -0.3133
     20 H          62.0121   89.4310   13.3136 H       1  UNL1        0.1485
     21 C          63.4120   90.2472   11.8748 C.3     1  UNL1        0.1148
     22 C          63.7396   89.4694   14.7536 C.3     1  UNL1        0.0307
     23 C          64.5112   90.6293   14.1976 C.ar    1  UNL1       -0.0245
     24 C          65.4467   91.4004   15.0810 C.ar    1  UNL1       -0.0045
     25 C          66.2184   92.5603   14.5250 C.ar    1  UNL1       -0.0007
     26 C          66.0545   92.9492   13.0856 C.ar    1  UNL1       -0.0045
     27 C          65.1191   92.1782   12.2022 C.ar    1  UNL1       -0.0245
     28 C          64.9553   92.5671   10.7628 C.3     1  UNL1        0.0307
     29 C          64.3474   91.0182   12.7582 C.ar    1  UNL1       -0.0105
     30 C          60.8019   90.3882    9.9931 C.3     1  UNL1        0.1374
     31 C          59.8145   90.9180   10.9903 C.3     1  UNL1        0.1616
     32 O          59.6110   90.2066   12.2951 O.3     1  UNL1       -0.3799
     33 H          59.2224   89.3334   12.1301 H       1  UNL1        0.2105
@<TRIPOS>BOND
     1    22    23    1
     2    23    24   ar
     3    24    25   ar
     4    25    26   ar
     5    26    27   ar
     6    27    28    1
     7    27    29   ar
     8    29    21    1
     9    21    19    1
    10    19     1    1
    11     1     2   ar
    12     2     3   ar
    13     3    12    1
    14    12    13    1
    15    13    14    1
    16    14    15    1
    17    15    16    1
    18    16    17    1
    19    17    18    2
    20     3     4   ar
    21     4     5   ar
    22     5     6   ar
    23     6     7    1
    24     6     8   ar
    25     8     9    1
    26     8    10   ar
    27    10    30    1
    28    30    31    1
    29    31    32    1
    30    10    11   ar
    31    29    23   ar
    32    11     1   ar
    33    17    12   am
    34    11     5   ar
    35    19    20    1
    36    32    33    1
@<TRIPOS>MOLECULE
*****
 33 36 0 0 0
SMALL
GASTEIGER

@<TRIPOS>ATOM
      1 C          62.2727   87.9221   11.7726 C.ar    1  UNL1        0.1460
      2 N          62.8332   86.6650   12.3690 N.ar    1  UNL1       -0.2144
      3 C          62.6186   85.3488   11.6825 C.ar    1  UNL1        0.1390
      4 C          61.8437   85.2895   10.3996 C.ar    1  UNL1        0.0360
      5 C          61.2833   86.5465    9.8031 C.ar    1  UNL1        0.0184
      6 C          60.4837   86.7975    8.5590 C.ar    1  UNL1       -0.0086
      7 C          60.0415   85.7593    7.5709 C.3     1  UNL1        0.0322
      8 C          60.2041   88.2689    8.4766 C.ar    1  UNL1        0.0336
      9 C          59.4331   88.9604    7.3915 C.3     1  UNL1        0.0497
     10 N          60.8308   88.9273    9.6698 N.ar    1  UNL1       -0.3262
     11 C          61.4978   87.8628   10.4896 C.ar    1  UNL1        0.0913
     12 N          63.1791   84.0916   12.2789 N.am    1  UNL1       -0.2392
     13 C          64.0057   83.1657   11.4368 C.3     1  UNL1        0.1317
     14 C          64.5661   81.9086   12.0331 C.3     1  UNL1        0.1647
     15 O          64.2999   81.5775   13.4717 O.3     1  UNL1       -0.3426
     16 C          63.4733   82.5034   14.3139 C.3     1  UNL1        0.2275
     17 C          62.9128   83.7606   13.7175 C.2     1  UNL1        0.2607
     18 O          62.0862   84.6865   14.5597 O.2     1  UNL1       -0.2718
     19 N          62.4873   89.2384   12.4591 N.pl3   1  UNL1       -0.3133
     20 H          62.0249   89.4330   13.3062 H       1  UNL1        0.1485
     21 C          63.4063   90.2584   11.8549 C.3     1  UNL1        0.1148
     22 C          64.9208   92.5960   10.7406 C.3     1  UNL1        0.0307
     23 C          65.1173   92.1879   12.1705 C.ar    1  UNL1       -0.0245
     24 C          66.0710   92.9485   13.0434 C.ar    1  UNL1       -0.0045
     25 C          66.2675   92.5404   14.4733 C.ar    1  UNL1       -0.0007
     26 C          65.5102   91.3715   15.0305 C.ar    1  UNL1       -0.0045
     27 C          64.5565   90.6109   14.1577 C.ar    1  UNL1       -0.0245
     28 C          63.7993   89.4420   14.7148 C.3     1  UNL1        0.0307
     29 C          64.3600   91.0190   12.7276 C.ar    1  UNL1       -0.0105
     30 C          60.7966   90.3929    9.9874 C.3     1  UNL1        0.1374
     31 C          59.8167   90.9196   10.9936 C.3     1  UNL1        0.1616
     32 O          59.6357   90.2140   12.3048 O.3     1  UNL1       -0.3799
     33 H          59.2530   89.3363   12.1496 H       1  UNL1        0.2105
@<TRIPOS>BOND
     1    22    23    1
     2    23    24   ar
     3    24    25   ar
     4    25    26   ar
     5    26    27   ar
     6    27    28    1
     7    27    29   ar
     8    29    21    1
     9    21    19    1
    10    19     1    1
    11     1     2   ar
    12     2     3   ar
    13     3    12    1
    14    12    13    1
    15    13    14    1
    16    14    15    1
    17    15    16    1
    18    16    17    1
    19    17    18    2
    20     3     4   ar
    21     4     5   ar
    22     5     6   ar
    23     6     7    1
    24     6     8   ar
    25     8     9    1
    26     8    10   ar
    27    10    30    1
    28    30    31    1
    29    31    32    1
    30    10    11   ar
    31    29    23   ar
    32    11     1   ar
    33    17    12   am
    34    11     5   ar
    35    19    20    1
    36    32    33    1
@<TRIPOS>MOLECULE
*****
 33 36 0 0 0
SMALL
GASTEIGER

@<TRIPOS>ATOM
      1 C          63.0019   87.0272   12.5678 C.ar    1  UNL1        0.1460
      2 N          62.2902   86.4154   11.3977 N.ar    1  UNL1       -0.2144
      3 C          61.9666   87.2523   10.1956 C.ar    1  UNL1        0.1390
      4 C          62.3546   88.7008   10.1637 C.ar    1  UNL1        0.0360
      5 C          63.0663   89.3126   11.3339 C.ar    1  UNL1        0.0184
      6 C          63.5701   90.7025   11.5874 C.ar    1  UNL1       -0.0086
      7 C          63.4585   91.8659   10.6473 C.3     1  UNL1        0.0322
      8 C          64.2052   90.7247   12.9462 C.ar    1  UNL1        0.0336
      9 C          64.8401   91.9142   13.6034 C.3     1  UNL1        0.0497
     10 N          64.0938   89.3485   13.5324 N.ar    1  UNL1       -0.3262
     11 C          63.3899   88.4757   12.5359 C.ar    1  UNL1        0.0913
     12 N          61.2549   86.6405    9.0254 N.am    1  UNL1       -0.2392
     13 C          59.8306   87.0118    8.7362 C.3     1  UNL1        0.1317
     14 C          59.1189   86.4001    7.5660 C.3     1  UNL1        0.1647
     15 O          59.8315   85.4171    6.6850 O.3     1  UNL1       -0.3426
     16 C          61.2558   85.0459    6.9743 C.3     1  UNL1        0.2275
     17 C          61.9675   85.6576    8.1445 C.2     1  UNL1        0.2607
     18 O          63.3917   85.2863    8.4337 O.2     1  UNL1       -0.2718
     19 N          63.3255   86.1903   13.7699 N.pl3   1  UNL1       -0.3133
     20 H          63.0170   86.4701   14.6620 H       1  UNL1        0.1485
     21 C          64.1192   84.9272   13.6128 C.3     1  UNL1        0.1148
     22 C          64.4769   83.3007   11.1175 C.3     1  UNL1        0.0307
     23 C          63.5927   82.7981   12.2200 C.ar    1  UNL1       -0.0245
     24 C          62.8873   81.4823   12.0749 C.ar    1  UNL1       -0.0045
     25 C          62.0031   80.9797   13.1775 C.ar    1  UNL1       -0.0007
     26 C          61.8242   81.7930   14.4251 C.ar    1  UNL1       -0.0045
     27 C          62.5296   83.1088   14.5702 C.ar    1  UNL1       -0.0245
     28 C          62.3507   83.9221   15.8179 C.3     1  UNL1        0.0307
     29 C          63.4138   83.6114   13.4677 C.ar    1  UNL1       -0.0105
     30 C          64.5978   88.9201   14.8787 C.3     1  UNL1        0.1374
     31 C          63.6622   88.8756   16.0504 C.3     1  UNL1        0.1616
     32 O          63.0793   87.5672   16.4954 O.3     1  UNL1       -0.3799
     33 H          62.4910   87.2237   15.8049 H       1  UNL1        0.2105
@<TRIPOS>BOND
     1    22    23    1
     2    23    24   ar
     3    24    25   ar
     4    25    26   ar
     5    26    27   ar
     6    27    28    1
     7    27    29   ar
     8    29    21    1
     9    21    19    1
    10    19     1    1
    11     1     2   ar
    12     2     3   ar
    13     3    12    1
    14    12    13    1
    15    13    14    1
    16    14    15    1
    17    15    16    1
    18    16    17    1
    19    17    18    2
    20     3     4   ar
    21     4     5   ar
    22     5     6   ar
    23     6     7    1
    24     6     8   ar
    25     8     9    1
    26     8    10   ar
    27    10    30    1
    28    30    31    1
    29    31    32    1
    30    10    11   ar
    31    29    23   ar
    32    11     1   ar
    33    17    12   am
    34    11     5   ar
    35    19    20    1
    36    32    33    1
@<TRIPOS>MOLECULE
*****
 33 36 0 0 0
SMALL
GASTEIGER

@<TRIPOS>ATOM
      1 C          63.0025   87.0258   12.5700 C.ar    1  UNL1        0.1460
      2 N          62.2917   86.4139   11.3994 N.ar    1  UNL1       -0.2144
      3 C          61.9688   87.2506   10.1971 C.ar    1  UNL1        0.1390
      4 C          62.3566   88.6993   10.1654 C.ar    1  UNL1        0.0360
      5 C          63.0674   89.3112   11.3360 C.ar    1  UNL1        0.0184
      6 C          63.5708   90.7012   11.5898 C.ar    1  UNL1       -0.0086
      7 C          63.4597   91.8646   10.6496 C.3     1  UNL1        0.0322
      8 C          64.2050   90.7235   12.9490 C.ar    1  UNL1        0.0336
      9 C          64.8393   91.9132   13.6066 C.3     1  UNL1        0.0497
     10 N          64.0934   89.3473   13.5352 N.ar    1  UNL1       -0.3262
     11 C          63.3903   88.4745   12.5383 C.ar    1  UNL1        0.0913
     12 N          61.2579   86.6387    9.0264 N.am    1  UNL1       -0.2392
     13 C          59.8333   87.0085    8.7372 C.3     1  UNL1        0.1317
     14 C          59.1225   86.3966    7.5666 C.3     1  UNL1        0.1647
     15 O          59.8363   85.4150    6.6852 O.3     1  UNL1       -0.3426
     16 C          61.2610   85.0453    6.9744 C.3     1  UNL1        0.2275
     17 C          61.9718   85.6572    8.1450 C.2     1  UNL1        0.2607
     18 O          63.3964   85.2874    8.4343 O.2     1  UNL1       -0.2718
     19 N          63.3255   86.1891   13.7723 N.pl3   1  UNL1       -0.3133
     20 H          63.0170   86.4692   14.6643 H       1  UNL1        0.1485
     21 C          64.1185   84.9255   13.6156 C.3     1  UNL1        0.1148
     22 C          62.3500   83.9175   15.8194 C.3     1  UNL1        0.0307
     23 C          62.5282   83.1063   14.5703 C.ar    1  UNL1       -0.0245
     24 C          61.8221   81.7911   14.4231 C.ar    1  UNL1       -0.0045
     25 C          62.0002   80.9799   13.1740 C.ar    1  UNL1       -0.0007
     26 C          62.8844   81.4839   12.0721 C.ar    1  UNL1       -0.0045
     27 C          63.5905   82.7991   12.2193 C.ar    1  UNL1       -0.0245
     28 C          64.4748   83.3031   11.1174 C.3     1  UNL1        0.0307
     29 C          63.4124   83.6103   13.4684 C.ar    1  UNL1       -0.0105
     30 C          64.5966   88.9191   14.8819 C.3     1  UNL1        0.1374
     31 C          63.6590   88.8692   16.0517 C.3     1  UNL1        0.1616
     32 O          63.0902   87.5562   16.5015 O.3     1  UNL1       -0.3799
     33 H          62.5075   87.2028   15.8113 H       1  UNL1        0.2105
@<TRIPOS>BOND
     1    22    23    1
     2    23    24   ar
     3    24    25   ar
     4    25    26   ar
     5    26    27   ar
     6    27    28    1
     7    27    29   ar
     8    29    21    1
     9    21    19    1
    10    19     1    1
    11     1     2   ar
    12     2     3   ar
    13     3    12    1
    14    12    13    1
    15    13    14    1
    16    14    15    1
    17    15    16    1
    18    16    17    1
    19    17    18    2
    20     3     4   ar
    21     4     5   ar
    22     5     6   ar
    23     6     7    1
    24     6     8   ar
    25     8     9    1
    26     8    10   ar
    27    10    30    1
    28    30    31    1
    29    31    32    1
    30    10    11   ar
    31    29    23   ar
    32    11     1   ar
    33    17    12   am
    34    11     5   ar
    35    19    20    1
    36    32    33    1
@<TRIPOS>MOLECULE
*****
 33 36 0 0 0
SMALL
GASTEIGER

@<TRIPOS>ATOM
      1 C          62.9756   87.6686   12.4403 C.ar    1  UNL1        0.1460
      2 N          62.1511   88.0456   11.2453 N.ar    1  UNL1       -0.2144
      3 C          61.5071   86.9780   10.4114 C.ar    1  UNL1        0.1390
      4 C          61.6876   85.5334   10.7725 C.ar    1  UNL1        0.0360
      5 C          62.5121   85.1563   11.9675 C.ar    1  UNL1        0.0184
      6 C          62.8649   83.8262   12.5643 C.ar    1  UNL1       -0.0086
      7 C          62.4317   82.4858   12.0488 C.3     1  UNL1        0.0322
      8 C          63.7269   84.0717   13.7670 C.ar    1  UNL1        0.0336
      9 C          64.3072   83.0199   14.6655 C.3     1  UNL1        0.0497
     10 N          63.9069   85.5536   13.9136 N.ar    1  UNL1       -0.3262
     11 C          63.1560   86.2239   12.8014 C.ar    1  UNL1        0.0913
     12 N          60.6826   87.3550    9.2163 N.am    1  UNL1       -0.2392
     13 C          60.2398   86.2991    8.2474 C.3     1  UNL1        0.1317
     14 C          59.4153   86.6761    7.0523 C.3     1  UNL1        0.1647
     15 O          59.0336   88.1090    6.8262 O.3     1  UNL1       -0.3426
     16 C          59.4765   89.1649    7.7952 C.3     1  UNL1        0.2275
     17 C          60.3010   88.7879    8.9903 C.2     1  UNL1        0.2607
     18 O          60.7438   89.8439    9.9592 O.2     1  UNL1       -0.2718
     19 N          63.6196   88.7362   13.2743 N.pl3   1  UNL1       -0.3133
     20 H          64.2936   88.4937   13.9497 H       1  UNL1        0.1485
     21 C          63.2367   90.1734   13.0791 C.3     1  UNL1        0.1148
     22 C          65.2293   91.1273   15.1088 C.3     1  UNL1        0.0307
     23 C          65.2744   91.6580   13.7065 C.ar    1  UNL1       -0.0245
     24 C          66.3159   92.6657   13.3191 C.ar    1  UNL1       -0.0045
     25 C          66.3610   93.1963   11.9168 C.ar    1  UNL1       -0.0007
     26 C          65.3647   92.7194   10.9020 C.ar    1  UNL1       -0.0045
     27 C          64.3233   91.7117   11.2894 C.ar    1  UNL1       -0.0245
     28 C          63.3270   91.2348   10.2746 C.3     1  UNL1        0.0307
     29 C          64.2781   91.1810   12.6917 C.ar    1  UNL1       -0.0105
     30 C          64.6987   86.2440   14.9843 C.3     1  UNL1        0.1374
     31 C          64.0108   86.7491   16.2179 C.3     1  UNL1        0.1616
     32 O          63.3040   88.0718   16.1942 O.3     1  UNL1       -0.3799
     33 H          63.9519   88.7824   16.0672 H       1  UNL1        0.2105
@<TRIPOS>BOND
     1    22    23    1
     2    23    24   ar
     3    24    25   ar
     4    25    26   ar
     5    26    27   ar
     6    27    28    1
     7    27    29   ar
     8    29    21    1
     9    21    19    1
    10    19     1    1
    11     1     2   ar
    12     2     3   ar
    13     3    12    1
    14    12    13    1
    15    13    14    1
    16    14    15    1
    17    15    16    1
    18    16    17    1
    19    17    18    2
    20     3     4   ar
    21     4     5   ar
    22     5     6   ar
    23     6     7    1
    24     6     8   ar
    25     8     9    1
    26     8    10   ar
    27    10    30    1
    28    30    31    1
    29    31    32    1
    30    10    11   ar
    31    29    23   ar
    32    11     1   ar
    33    17    12   am
    34    11     5   ar
    35    19    20    1
    36    32    33    1
@<TRIPOS>MOLECULE
*****
 33 36 0 0 0
SMALL
GASTEIGER

@<TRIPOS>ATOM
      1 C          62.7527   87.8707   12.0951 C.ar    1  UNL1        0.1460
      2 N          63.1398   86.5429   12.6756 N.ar    1  UNL1       -0.2144
      3 C          62.6911   85.2747   12.0120 C.ar    1  UNL1        0.1390
      4 C          61.8553   85.3344   10.7678 C.ar    1  UNL1        0.0360
      5 C          61.4682   86.6622   10.1873 C.ar    1  UNL1        0.0184
      6 C          60.6581   87.0321    8.9803 C.ar    1  UNL1       -0.0086
      7 C          60.0132   86.0736    8.0237 C.3     1  UNL1        0.0322
      8 C          60.6061   88.5290    8.8980 C.ar    1  UNL1        0.0336
      9 C          59.9000   89.3301    7.8445 C.3     1  UNL1        0.0497
     10 N          61.3841   89.0841   10.0541 N.ar    1  UNL1       -0.3262
     11 C          61.9169   87.9303   10.8509 C.ar    1  UNL1        0.0913
     12 N          63.0783   83.9468   12.5925 N.am    1  UNL1       -0.2392
     13 C          62.4845   83.4955   13.8940 C.3     1  UNL1        0.1317
     14 C          62.8716   82.1677   14.4745 C.3     1  UNL1        0.1647
     15 O          63.8524   81.2911   13.7536 O.3     1  UNL1       -0.3426
     16 C          64.4461   81.7425   12.4521 C.3     1  UNL1        0.2275
     17 C          64.0590   83.0704   11.8716 C.2     1  UNL1        0.2607
     18 O          64.6528   83.5217   10.5701 O.2     1  UNL1       -0.2718
     19 N          63.2014   89.1389   12.7587 N.pl3   1  UNL1       -0.3133
     20 H          62.7426   89.9871   12.5605 H       1  UNL1        0.1485
     21 C          64.3491   89.1147   13.7242 C.3     1  UNL1        0.1148
     22 C          62.7836   89.1236   16.2833 C.3     1  UNL1        0.0307
     23 C          63.7429   90.2380   15.9871 C.ar    1  UNL1       -0.0245
     24 C          63.9195   91.3569   16.9704 C.ar    1  UNL1       -0.0045
     25 C          64.8788   92.4713   16.6742 C.ar    1  UNL1       -0.0007
     26 C          65.6616   92.4669   15.3947 C.ar    1  UNL1       -0.0045
     27 C          65.4850   91.3480   14.4113 C.ar    1  UNL1       -0.0245
     28 C          66.2678   91.3436   13.1317 C.3     1  UNL1        0.0307
     29 C          64.5257   90.2336   14.7075 C.ar    1  UNL1       -0.0105
     30 C          61.5926   90.5378   10.3597 C.3     1  UNL1        0.1374
     31 C          62.8609   91.2184    9.9375 C.3     1  UNL1        0.1616
     32 O          63.9423   91.4802   10.9435 O.3     1  UNL1       -0.3799
     33 H          63.6253   92.1203   11.5998 H       1  UNL1        0.2105
@<TRIPOS>BOND
     1    22    23    1
     2    23    24   ar
     3    24    25   ar
     4    25    26   ar
     5    26    27   ar
     6    27    28    1
     7    27    29   ar
     8    29    21    1
     9    21    19    1
    10    19     1    1
    11     1     2   ar
    12     2     3   ar
    13     3    12    1
    14    12    13    1
    15    13    14    1
    16    14    15    1
    17    15    16    1
    18    16    17    1
    19    17    18    2
    20     3     4   ar
    21     4     5   ar
    22     5     6   ar
    23     6     7    1
    24     6     8   ar
    25     8     9    1
    26     8    10   ar
    27    10    30    1
    28    30    31    1
    29    31    32    1
    30    10    11   ar
    31    29    23   ar
    32    11     1   ar
    33    17    12   am
    34    11     5   ar
    35    19    20    1
    36    32    33    1
@<TRIPOS>MOLECULE
*****
 33 36 0 0 0
SMALL
GASTEIGER

@<TRIPOS>ATOM
      1 C          62.8336   87.5316   12.1538 C.ar    1  UNL1        0.1460
      2 N          63.0989   86.1128   12.5617 N.ar    1  UNL1       -0.2144
      3 C          62.4984   84.9827   11.7792 C.ar    1  UNL1        0.1390
      4 C          61.6325   85.2715   10.5889 C.ar    1  UNL1        0.0360
      5 C          61.3672   86.6903   10.1810 C.ar    1  UNL1        0.0184
      6 C          60.5605   87.2788    9.0617 C.ar    1  UNL1       -0.0086
      7 C          59.7876   86.5087    8.0324 C.3     1  UNL1        0.0322
      8 C          60.6625   88.7726    9.1523 C.ar    1  UNL1        0.0336
      9 C          60.0094   89.7585    8.2295 C.3     1  UNL1        0.0497
     10 N          61.5322   89.1074   10.3277 N.ar    1  UNL1       -0.3262
     11 C          61.9677   87.8204   10.9634 C.ar    1  UNL1        0.0913
     12 N          62.7637   83.5638   12.1871 N.am    1  UNL1       -0.2392
     13 C          62.3042   83.0702   13.5270 C.3     1  UNL1        0.1317
     14 C          62.5694   81.6513   13.9349 C.3     1  UNL1        0.1647
     15 O          63.2943   80.7260   13.0029 O.3     1  UNL1       -0.3426
     16 C          63.7539   81.2196   11.6631 C.3     1  UNL1        0.2275
     17 C          63.4885   82.6386   11.2552 C.2     1  UNL1        0.2607
     18 O          63.9481   83.1322    9.9154 O.2     1  UNL1       -0.2718
     19 N          63.4341   88.6618   12.9362 N.pl3   1  UNL1       -0.3133
     20 H          63.1903   89.5917   12.7240 H       1  UNL1        0.1485
     21 C          64.4062   88.3751   14.0421 C.3     1  UNL1        0.1148
     22 C          64.8937   85.4610   14.5618 C.3     1  UNL1        0.0307
     23 C          64.1706   86.2934   15.5786 C.ar    1  UNL1       -0.0245
     24 C          63.6912   85.6688   16.8554 C.ar    1  UNL1       -0.0045
     25 C          62.9681   86.5012   17.8723 C.ar    1  UNL1       -0.0007
     26 C          62.7243   87.9583   17.6125 C.ar    1  UNL1       -0.0045
     27 C          63.2037   88.5829   16.3358 C.ar    1  UNL1       -0.0245
     28 C          62.9599   90.0400   16.0759 C.3     1  UNL1        0.0307
     29 C          63.9268   87.7505   15.3188 C.ar    1  UNL1       -0.0105
     30 C          61.9015   90.4868   10.7867 C.3     1  UNL1        0.1374
     31 C          63.2170   91.0843   10.3836 C.3     1  UNL1        0.1616
     32 O          64.2419   91.4153   11.4276 O.3     1  UNL1       -0.3799
     33 H          63.9072   92.1275   11.9948 H       1  UNL1        0.2105
@<TRIPOS>BOND
     1    22    23    1
     2    23    24   ar
     3    24    25   ar
     4    25    26   ar
     5    26    27   ar
     6    27    28    1
     7    27    29   ar
     8    29    21    1
     9    21    19    1
    10    19     1    1
    11     1     2   ar
    12     2     3   ar
    13     3    12    1
    14    12    13    1
    15    13    14    1
    16    14    15    1
    17    15    16    1
    18    16    17    1
    19    17    18    2
    20     3     4   ar
    21     4     5   ar
    22     5     6   ar
    23     6     7    1
    24     6     8   ar
    25     8     9    1
    26     8    10   ar
    27    10    30    1
    28    30    31    1
    29    31    32    1
    30    10    11   ar
    31    29    23   ar
    32    11     1   ar
    33    17    12   am
    34    11     5   ar
    35    19    20    1
    36    32    33    1
@<TRIPOS>MOLECULE
*****
 33 36 0 0 0
SMALL
GASTEIGER

@<TRIPOS>ATOM
      1 C          62.8535   87.5701   12.2067 C.ar    1  UNL1        0.1460
      2 N          63.0942   86.1554   12.6432 N.ar    1  UNL1       -0.2144
      3 C          62.4716   85.0205   11.8854 C.ar    1  UNL1        0.1390
      4 C          61.6084   85.3003   10.6910 C.ar    1  UNL1        0.0360
      5 C          61.3678   86.7150   10.2544 C.ar    1  UNL1        0.0184
      6 C          60.5693   87.2947    9.1247 C.ar    1  UNL1       -0.0086
      7 C          59.7803   86.5176    8.1130 C.3     1  UNL1        0.0322
      8 C          60.6983   88.7880    9.1843 C.ar    1  UNL1        0.0336
      9 C          60.0609   89.7663    8.2426 C.3     1  UNL1        0.0497
     10 N          61.5766   89.1311   10.3509 N.ar    1  UNL1       -0.3262
     11 C          61.9903   87.8499   11.0123 C.ar    1  UNL1        0.0913
     12 N          62.7123   83.6057   12.3220 N.am    1  UNL1       -0.2392
     13 C          63.3185   82.6193   11.3682 C.3     1  UNL1        0.1317
     14 C          63.5591   81.2046   11.8047 C.3     1  UNL1        0.1647
     15 O          63.1936   80.7761   13.1950 O.3     1  UNL1       -0.3426
     16 C          62.5874   81.7625   14.1488 C.3     1  UNL1        0.2275
     17 C          62.3468   83.1773   13.7122 C.2     1  UNL1        0.2607
     18 O          61.7406   84.1637   14.6660 O.2     1  UNL1       -0.2718
     19 N          63.4761   88.7051   12.9645 N.pl3   1  UNL1       -0.3133
     20 H          63.2513   89.6348   12.7311 H       1  UNL1        0.1485
     21 C          64.4410   88.4236   14.0779 C.3     1  UNL1        0.1148
     22 C          62.9461   90.0619   16.0982 C.3     1  UNL1        0.0307
     23 C          63.2090   88.6082   16.3579 C.ar    1  UNL1       -0.0245
     24 C          62.7246   87.9735   17.6277 C.ar    1  UNL1       -0.0045
     25 C          62.9875   86.5198   17.8875 C.ar    1  UNL1       -0.0007
     26 C          63.7350   85.7006   16.8773 C.ar    1  UNL1       -0.0045
     27 C          64.2194   86.3352   15.6075 C.ar    1  UNL1       -0.0245
     28 C          64.9669   85.5161   14.5974 C.3     1  UNL1        0.0307
     29 C          63.9565   87.7890   15.3477 C.ar    1  UNL1       -0.0105
     30 C          61.9717   90.5128   10.7807 C.3     1  UNL1        0.1374
     31 C          63.3073   91.0684   10.3840 C.3     1  UNL1        0.1616
     32 O          64.3053   91.4467   11.4379 O.3     1  UNL1       -0.3799
     33 H          63.9645   92.1952   11.9522 H       1  UNL1        0.2105
@<TRIPOS>BOND
     1    22    23    1
     2    23    24   ar
     3    24    25   ar
     4    25    26   ar
     5    26    27   ar
     6    27    28    1
     7    27    29   ar
     8    29    21    1
     9    21    19    1
    10    19     1    1
    11     1     2   ar
    12     2     3   ar
    13     3    12    1
    14    12    13    1
    15    13    14    1
    16    14    15    1
    17    15    16    1
    18    16    17    1
    19    17    18    2
    20     3     4   ar
    21     4     5   ar
    22     5     6   ar
    23     6     7    1
    24     6     8   ar
    25     8     9    1
    26     8    10   ar
    27    10    30    1
    28    30    31    1
    29    31    32    1
    30    10    11   ar
    31    29    23   ar
    32    11     1   ar
    33    17    12   am
    34    11     5   ar
    35    19    20    1
    36    32    33    1
@<TRIPOS>MOLECULE
*****
 33 36 0 0 0
SMALL
GASTEIGER

@<TRIPOS>ATOM
      1 C          63.5594   87.7096   13.5477 C.ar    1  UNL1        0.1460
      2 N          64.4180   88.6245   14.3696 N.ar    1  UNL1       -0.2144
      3 C          64.6584   90.0344   13.9177 C.ar    1  UNL1        0.1390
      4 C          64.0402   90.5294   12.6438 C.ar    1  UNL1        0.0360
      5 C          63.1816   89.6145   11.8219 C.ar    1  UNL1        0.0184
      6 C          62.4450   89.8196   10.5314 C.ar    1  UNL1       -0.0086
      7 C          62.4102   91.0857    9.7277 C.3     1  UNL1        0.0322
      8 C          61.7493   88.5364   10.1857 C.ar    1  UNL1        0.0336
      9 C          60.8966   88.2940    8.9756 C.3     1  UNL1        0.0497
     10 N          62.0560   87.5383   11.2626 N.ar    1  UNL1       -0.3262
     11 C          62.9412   88.2046   12.2738 C.ar    1  UNL1        0.0913
     12 N          65.5171   90.9494   14.7397 N.am    1  UNL1       -0.2392
     13 C          66.9769   91.0913   14.4254 C.3     1  UNL1        0.1317
     14 C          67.8356   92.0063   15.2473 C.3     1  UNL1        0.1647
     15 O          67.2344   92.7793   16.3836 O.3     1  UNL1       -0.3426
     16 C          65.7746   92.6374   16.6979 C.3     1  UNL1        0.2275
     17 C          64.9159   91.7224   15.8759 C.2     1  UNL1        0.2607
     18 O          63.4561   91.5805   16.1902 O.2     1  UNL1       -0.2718
     19 N          63.3190   86.2996   13.9995 N.pl3   1  UNL1       -0.3133
     20 H          62.6500   86.1137   14.6975 H       1  UNL1        0.1485
     21 C          64.0978   85.1729   13.3880 C.3     1  UNL1        0.1148
     22 C          64.6573   83.3953   11.0371 C.3     1  UNL1        0.0307
     23 C          63.7854   82.9071   12.1557 C.ar    1  UNL1       -0.0245
     24 C          63.1933   81.5301   12.0990 C.ar    1  UNL1       -0.0045
     25 C          62.3214   81.0419   13.2176 C.ar    1  UNL1       -0.0007
     26 C          62.0416   81.9307   14.3931 C.ar    1  UNL1       -0.0045
     27 C          62.6337   83.3077   14.4499 C.ar    1  UNL1       -0.0245
     28 C          62.3540   84.1965   15.6254 C.3     1  UNL1        0.0307
     29 C          63.5057   83.7959   13.3312 C.ar    1  UNL1       -0.0105
     30 C          61.5638   86.1224   11.3185 C.3     1  UNL1        0.1374
     31 C          61.7732   85.2089   10.1473 C.3     1  UNL1        0.1616
     32 O          62.8472   85.5094    9.1443 O.3     1  UNL1       -0.3799
     33 H          62.6299   86.3293    8.6737 H       1  UNL1        0.2105
@<TRIPOS>BOND
     1    22    23    1
     2    23    24   ar
     3    24    25   ar
     4    25    26   ar
     5    26    27   ar
     6    27    28    1
     7    27    29   ar
     8    29    21    1
     9    21    19    1
    10    19     1    1
    11     1     2   ar
    12     2     3   ar
    13     3    12    1
    14    12    13    1
    15    13    14    1
    16    14    15    1
    17    15    16    1
    18    16    17    1
    19    17    18    2
    20     3     4   ar
    21     4     5   ar
    22     5     6   ar
    23     6     7    1
    24     6     8   ar
    25     8     9    1
    26     8    10   ar
    27    10    30    1
    28    30    31    1
    29    31    32    1
    30    10    11   ar
    31    29    23   ar
    32    11     1   ar
    33    17    12   am
    34    11     5   ar
    35    19    20    1
    36    32    33    1
