@<TRIPOS>MOLECULE
*****
 28 31 0 0 0
SMALL
GASTEIGER

@<TRIPOS>ATOM
      1 C          63.1608   89.4298   12.1546 C.ar    1  UNL1        0.0352
      2 C          62.5617   90.1228   10.9669 C.ar    1  UNL1        0.1336
      3 O          62.6546   91.6149   10.8434 O.3     1  UNL1       -0.5055
      4 C          61.8696   89.3238    9.9027 C.ar    1  UNL1        0.0366
      5 C          61.7766   87.8318   10.0262 C.ar    1  UNL1        0.0031
      6 C          62.3758   87.1388   11.2139 C.ar    1  UNL1        0.0002
      7 C          62.2829   85.6468   11.3374 C.ar    1  UNL1        0.0000
      8 C          62.8820   84.9538   12.5252 C.ar    1  UNL1        0.0001
      9 C          63.5741   85.7528   13.5894 C.ar    1  UNL1        0.0000
     10 C          63.6670   87.2448   13.4659 C.ar    1  UNL1        0.0001
     11 C          63.0679   87.9378   12.2782 C.ar    1  UNL1        0.0030
     12 H          63.0869   92.1140   11.5082 H       1  UNL1        0.2922
     13 C          62.7891   83.4617   12.6487 C.ar    1  UNL1        0.0030
     14 C          62.4944   82.8363   13.9799 C.ar    1  UNL1        0.0002
     15 C          62.4015   81.3444   14.1035 C.ar    1  UNL1        0.0031
     16 C          62.6032   80.4777   12.8958 C.ar    1  UNL1        0.0366
     17 C          62.8979   81.1031   11.5647 C.ar    1  UNL1        0.1337
     18 O          63.0996   80.2366   10.3571 O.3     1  UNL1       -0.5055
     19 C          62.9908   82.5952   11.4411 C.ar    1  UNL1        0.0366
     20 H          63.0416   79.3046   10.4342 H       1  UNL1        0.2922
     21 C          65.2370   91.8269   15.3474 C.ar    1  UNL1        0.2250
     22 C          65.8322   91.7331   13.9737 C.ar    1  UNL1        0.0577
     23 C          65.1401   90.9341   12.9094 C.ar    1  UNL1        0.0064
     24 C          63.8529   90.2289   13.2189 C.ar    1  UNL1        0.0223
     25 C          63.2578   90.3227   14.5926 C.ar    1  UNL1        0.1021
     26 N          63.9498   91.1217   15.6568 N.ar    1  UNL1       -0.2101
     27 C          67.3796   92.9776   16.2614 C.3     1  UNL1        0.2542
     28 O          65.9291   92.6259   16.4116 O.3     1  UNL1       -0.4561
@<TRIPOS>BOND
     1    27    28    1
     2    28    21    1
     3    21    22   ar
     4    22    23   ar
     5    23    24   ar
     6    24     1    1
     7     1     2   ar
     8     2     3    1
     9     2     4   ar
    10     4     5   ar
    11     5     6   ar
    12     6     7   ar
    13     7     8   ar
    14     8    13    1
    15    13    14   ar
    16    14    15   ar
    17    15    16   ar
    18    16    17   ar
    19    17    18    1
    20    17    19   ar
    21     8     9   ar
    22     9    10   ar
    23    10    11   ar
    24    24    25   ar
    25    25    26   ar
    26    26    21   ar
    27    11     1   ar
    28    11     6   ar
    29    19    13   ar
    30     3    12    1
    31    18    20    1
@<TRIPOS>MOLECULE
*****
 28 31 0 0 0
SMALL
GASTEIGER

@<TRIPOS>ATOM
      1 C          62.8038   89.3707   11.6663 C.ar    1  UNL1        0.0352
      2 C          62.1071   90.0297   10.5129 C.ar    1  UNL1        0.1336
      3 O          62.1123   91.5245   10.3884 O.3     1  UNL1       -0.5055
      4 C          61.4053   89.1939    9.4839 C.ar    1  UNL1        0.0366
      5 C          61.4000   87.6991    9.6084 C.ar    1  UNL1        0.0031
      6 C          62.0967   87.0400   10.7618 C.ar    1  UNL1        0.0002
      7 C          62.0914   85.5452   10.8863 C.ar    1  UNL1        0.0000
      8 C          62.7881   84.8863   12.0397 C.ar    1  UNL1        0.0001
      9 C          63.4899   85.7221   13.0687 C.ar    1  UNL1        0.0000
     10 C          63.4952   87.2169   12.9442 C.ar    1  UNL1        0.0001
     11 C          62.7985   87.8758   11.7908 C.ar    1  UNL1        0.0030
     12 H          62.5508   92.0467   11.0312 H       1  UNL1        0.2922
     13 C          62.7828   83.3914   12.1642 C.ar    1  UNL1        0.0030
     14 C          63.1816   82.5401   10.9953 C.ar    1  UNL1        0.0002
     15 C          63.1764   81.0453   11.1197 C.ar    1  UNL1        0.0031
     16 C          62.7724   80.4017   12.4131 C.ar    1  UNL1        0.0366
     17 C          62.3737   81.2530   13.5820 C.ar    1  UNL1        0.1337
     18 O          61.9697   80.6096   14.8753 O.3     1  UNL1       -0.5055
     19 C          62.3789   82.7479   13.4575 C.ar    1  UNL1        0.0366
     20 H          61.9665   79.6758   14.9530 H       1  UNL1        0.2922
     21 C          64.9093   91.8781   14.7533 C.ar    1  UNL1        0.2250
     22 C          65.3683   91.9047   13.3254 C.ar    1  UNL1        0.0577
     23 C          64.6664   91.0689   12.2964 C.ar    1  UNL1        0.0064
     24 C          63.5056   90.2065   12.6953 C.ar    1  UNL1        0.0223
     25 C          63.0468   90.1800   14.1231 C.ar    1  UNL1        0.1021
     26 N          63.7486   91.0158   15.1521 N.ar    1  UNL1       -0.2101
     27 C          67.0860   92.5506   16.0023 C.3     1  UNL1        0.2542
     28 O          65.6112   92.7140   15.7822 O.3     1  UNL1       -0.4561
@<TRIPOS>BOND
     1    27    28    1
     2    28    21    1
     3    21    22   ar
     4    22    23   ar
     5    23    24   ar
     6    24     1    1
     7     1     2   ar
     8     2     3    1
     9     2     4   ar
    10     4     5   ar
    11     5     6   ar
    12     6     7   ar
    13     7     8   ar
    14     8    13    1
    15    13    14   ar
    16    14    15   ar
    17    15    16   ar
    18    16    17   ar
    19    17    18    1
    20    17    19   ar
    21     8     9   ar
    22     9    10   ar
    23    10    11   ar
    24    24    25   ar
    25    25    26   ar
    26    26    21   ar
    27    11     1   ar
    28    11     6   ar
    29    19    13   ar
    30     3    12    1
    31    18    20    1
@<TRIPOS>MOLECULE
*****
 28 31 0 0 0
SMALL
GASTEIGER

@<TRIPOS>ATOM
      1 C          65.4015   92.4159   12.4480 C.ar    1  UNL1        0.0352
      2 C          65.7683   92.2799   13.8960 C.ar    1  UNL1        0.1336
      3 O          66.7251   93.2510   14.5218 O.3     1  UNL1       -0.5055
      4 C          65.1782   91.1729   14.7184 C.ar    1  UNL1        0.0366
      5 C          64.2214   90.2018   14.0927 C.ar    1  UNL1        0.0031
      6 C          63.8546   90.3378   12.6446 C.ar    1  UNL1        0.0002
      7 C          62.8978   89.3667   12.0189 C.ar    1  UNL1        0.0000
      8 C          62.5310   89.5027   10.5709 C.ar    1  UNL1        0.0001
      9 C          63.1210   90.6098    9.7485 C.ar    1  UNL1        0.0000
     10 C          64.0778   91.5808   10.3742 C.ar    1  UNL1        0.0001
     11 C          64.4446   91.4448   11.8222 C.ar    1  UNL1        0.0030
     12 H          67.0937   93.9426   14.0081 H       1  UNL1        0.2922
     13 C          61.5741   88.5316    9.9451 C.ar    1  UNL1        0.0030
     14 C          61.6607   87.0721   10.2800 C.ar    1  UNL1        0.0002
     15 C          60.7039   86.1010    9.6543 C.ar    1  UNL1        0.0031
     16 C          59.6605   86.5895    8.6937 C.ar    1  UNL1        0.0366
     17 C          59.5739   88.0491    8.3588 C.ar    1  UNL1        0.1337
     18 O          58.5306   88.5376    7.3982 O.3     1  UNL1       -0.5055
     19 C          60.5308   89.0201    8.9845 C.ar    1  UNL1        0.0366
     20 H          57.9329   87.9310    7.0074 H       1  UNL1        0.2922
     21 C          67.1716   95.7370    9.9808 C.ar    1  UNL1        0.2250
     22 C          67.4217   94.3070    9.6032 C.ar    1  UNL1        0.0577
     23 C          66.8317   93.2000   10.4256 C.ar    1  UNL1        0.0064
     24 C          65.9915   93.5230   11.6256 C.ar    1  UNL1        0.0223
     25 C          65.7414   94.9529   12.0031 C.ar    1  UNL1        0.1021
     26 N          66.3315   96.0600   11.1807 N.ar    1  UNL1       -0.2101
     27 C          67.5720   96.8560    7.6704 C.3     1  UNL1        0.2542
     28 O          67.7616   96.8441    9.1584 O.3     1  UNL1       -0.4561
@<TRIPOS>BOND
     1    27    28    1
     2    28    21    1
     3    21    22   ar
     4    22    23   ar
     5    23    24   ar
     6    24     1    1
     7     1     2   ar
     8     2     3    1
     9     2     4   ar
    10     4     5   ar
    11     5     6   ar
    12     6     7   ar
    13     7     8   ar
    14     8    13    1
    15    13    14   ar
    16    14    15   ar
    17    15    16   ar
    18    16    17   ar
    19    17    18    1
    20    17    19   ar
    21     8     9   ar
    22     9    10   ar
    23    10    11   ar
    24    24    25   ar
    25    25    26   ar
    26    26    21   ar
    27    11     1   ar
    28    11     6   ar
    29    19    13   ar
    30     3    12    1
    31    18    20    1
@<TRIPOS>MOLECULE
*****
 28 31 0 0 0
SMALL
GASTEIGER

@<TRIPOS>ATOM
      1 C          62.4011   86.4666   11.3699 C.ar    1  UNL1        0.0352
      2 C          61.5608   86.8289   10.1814 C.ar    1  UNL1        0.1336
      3 O          60.9254   85.7501    9.3552 O.3     1  UNL1       -0.5055
      4 C          61.3559   88.2700    9.8190 C.ar    1  UNL1        0.0366
      5 C          61.9913   89.3487   10.6451 C.ar    1  UNL1        0.0031
      6 C          62.8316   88.9865   11.8337 C.ar    1  UNL1        0.0002
      7 C          63.4670   90.0652   12.6598 C.ar    1  UNL1        0.0000
      8 C          64.3073   89.7029   13.8483 C.ar    1  UNL1        0.0001
      9 C          64.5122   88.2619   14.2107 C.ar    1  UNL1        0.0000
     10 C          63.8769   87.1831   13.3846 C.ar    1  UNL1        0.0001
     11 C          63.0366   87.5454   12.1961 C.ar    1  UNL1        0.0030
     12 H          61.0534   84.8499    9.5815 H       1  UNL1        0.2922
     13 C          64.9427   90.7817   14.6745 C.ar    1  UNL1        0.0030
     14 C          64.2614   91.2745   15.9168 C.ar    1  UNL1        0.0002
     15 C          64.8968   92.3532   16.7430 C.ar    1  UNL1        0.0031
     16 C          66.2135   92.9392   16.3269 C.ar    1  UNL1        0.0366
     17 C          66.8947   92.4465   15.0847 C.ar    1  UNL1        0.1337
     18 O          68.2113   93.0325   14.6687 O.3     1  UNL1       -0.5055
     19 C          66.2593   91.3677   14.2585 C.ar    1  UNL1        0.0366
     20 H          68.6082   93.7064   15.1848 H       1  UNL1        0.2922
     21 C          63.0160   82.1434   12.4570 C.ar    1  UNL1        0.2250
     22 C          63.3825   82.6316   11.0868 C.ar    1  UNL1        0.0577
     23 C          63.1776   84.0727   10.7245 C.ar    1  UNL1        0.0064
     24 C          62.6061   85.0255   11.7323 C.ar    1  UNL1        0.0223
     25 C          62.2396   84.5373   13.1024 C.ar    1  UNL1        0.1021
     26 N          62.4445   83.0962   13.4647 N.ar    1  UNL1       -0.2101
     27 C          62.0982   79.9149   13.4275 C.3     1  UNL1        0.2542
     28 O          63.2209   80.7023   12.8194 O.3     1  UNL1       -0.4561
@<TRIPOS>BOND
     1    27    28    1
     2    28    21    1
     3    21    22   ar
     4    22    23   ar
     5    23    24   ar
     6    24     1    1
     7     1     2   ar
     8     2     3    1
     9     2     4   ar
    10     4     5   ar
    11     5     6   ar
    12     6     7   ar
    13     7     8   ar
    14     8    13    1
    15    13    14   ar
    16    14    15   ar
    17    15    16   ar
    18    16    17   ar
    19    17    18    1
    20    17    19   ar
    21     8     9   ar
    22     9    10   ar
    23    10    11   ar
    24    24    25   ar
    25    25    26   ar
    26    26    21   ar
    27    11     1   ar
    28    11     6   ar
    29    19    13   ar
    30     3    12    1
    31    18    20    1
@<TRIPOS>MOLECULE
*****
 28 31 0 0 0
SMALL
GASTEIGER

@<TRIPOS>ATOM
      1 C          62.5591   86.2879   11.9607 C.ar    1  UNL1        0.0352
      2 C          62.7165   84.8806   12.4554 C.ar    1  UNL1        0.1336
      3 O          62.0347   83.7530   11.7387 O.3     1  UNL1       -0.5055
      4 C          63.5556   84.6009   13.6668 C.ar    1  UNL1        0.0366
      5 C          64.2374   85.7285   14.3836 C.ar    1  UNL1        0.0031
      6 C          64.0800   87.1358   13.8889 C.ar    1  UNL1        0.0002
      7 C          64.7618   88.2634   14.6057 C.ar    1  UNL1        0.0000
      8 C          64.6044   89.6707   14.1110 C.ar    1  UNL1        0.0001
      9 C          63.7652   89.9504   12.8996 C.ar    1  UNL1        0.0000
     10 C          63.0834   88.8228   12.1828 C.ar    1  UNL1        0.0001
     11 C          63.2408   87.4155   12.6775 C.ar    1  UNL1        0.0030
     12 H          61.5105   83.9277   10.9819 H       1  UNL1        0.2922
     13 C          65.2861   90.7983   14.8277 C.ar    1  UNL1        0.0030
     14 C          64.6127   91.4635   15.9913 C.ar    1  UNL1        0.0002
     15 C          65.2944   92.5911   16.7081 C.ar    1  UNL1        0.0031
     16 C          66.6496   93.0536   16.2612 C.ar    1  UNL1        0.0366
     17 C          67.3231   92.3883   15.0976 C.ar    1  UNL1        0.1337
     18 O          68.6782   92.8507   14.6508 O.3     1  UNL1       -0.5055
     19 C          66.6413   91.2607   14.3809 C.ar    1  UNL1        0.0366
     20 H          69.1041   93.5551   15.0985 H       1  UNL1        0.2922
     21 C          60.0416   87.1270    8.3264 C.ar    1  UNL1        0.2250
     22 C          61.2698   86.2742    8.2074 C.ar    1  UNL1        0.0577
     23 C          62.1090   85.9944    9.4188 C.ar    1  UNL1        0.0064
     24 C          61.7199   86.5676   10.7493 C.ar    1  UNL1        0.0223
     25 C          60.4917   87.4204   10.8683 C.ar    1  UNL1        0.1021
     26 N          59.6525   87.7002    9.6569 N.ar    1  UNL1       -0.2101
     27 C          58.9994   88.8194    6.6531 C.3     1  UNL1        0.2542
     28 O          59.2024   87.4068    7.1150 O.3     1  UNL1       -0.4561
@<TRIPOS>BOND
     1    27    28    1
     2    28    21    1
     3    21    22   ar
     4    22    23   ar
     5    23    24   ar
     6    24     1    1
     7     1     2   ar
     8     2     3    1
     9     2     4   ar
    10     4     5   ar
    11     5     6   ar
    12     6     7   ar
    13     7     8   ar
    14     8    13    1
    15    13    14   ar
    16    14    15   ar
    17    15    16   ar
    18    16    17   ar
    19    17    18    1
    20    17    19   ar
    21     8     9   ar
    22     9    10   ar
    23    10    11   ar
    24    24    25   ar
    25    25    26   ar
    26    26    21   ar
    27    11     1   ar
    28    11     6   ar
    29    19    13   ar
    30     3    12    1
    31    18    20    1
@<TRIPOS>MOLECULE
*****
 28 31 0 0 0
SMALL
GASTEIGER

@<TRIPOS>ATOM
      1 C          62.9717   85.2090   12.1652 C.ar    1  UNL1        0.0352
      2 C          63.0354   83.9001   12.8949 C.ar    1  UNL1        0.1336
      3 O          62.6230   82.6347   12.2028 O.3     1  UNL1       -0.5055
      4 C          63.5115   83.8563   14.3167 C.ar    1  UNL1        0.0366
      5 C          63.9239   85.1216   15.0087 C.ar    1  UNL1        0.0031
      6 C          63.8603   86.4306   14.2790 C.ar    1  UNL1        0.0002
      7 C          64.2727   87.6959   14.9711 C.ar    1  UNL1        0.0000
      8 C          64.2090   89.0049   14.2414 C.ar    1  UNL1        0.0001
      9 C          63.7329   89.0486   12.8196 C.ar    1  UNL1        0.0000
     10 C          63.3205   87.7833   12.1276 C.ar    1  UNL1        0.0001
     11 C          63.3842   86.4744   12.8573 C.ar    1  UNL1        0.0030
     12 H          62.3256   82.6620   11.3147 H       1  UNL1        0.2922
     13 C          64.6214   90.2702   14.9335 C.ar    1  UNL1        0.0030
     14 C          63.8232   90.7844   16.0947 C.ar    1  UNL1        0.0002
     15 C          64.2355   92.0497   16.7867 C.ar    1  UNL1        0.0031
     16 C          65.4462   92.8008   16.3176 C.ar    1  UNL1        0.0366
     17 C          66.2445   92.2866   15.1564 C.ar    1  UNL1        0.1337
     18 O          67.4552   93.0377   14.6873 O.3     1  UNL1       -0.5055
     19 C          65.8321   91.0213   14.4643 C.ar    1  UNL1        0.0366
     20 H          67.7128   93.8281   15.1196 H       1  UNL1        0.2922
     21 C          61.5434   85.3402    7.8999 C.ar    1  UNL1        0.2250
     22 C          60.7369   85.9960    8.9814 C.ar    1  UNL1        0.0577
     23 C          61.2130   85.9523   10.4032 C.ar    1  UNL1        0.0064
     24 C          62.4956   85.2527   10.7434 C.ar    1  UNL1        0.0223
     25 C          63.3020   84.5970    9.6620 C.ar    1  UNL1        0.1021
     26 N          62.8259   84.6407    8.2402 N.ar    1  UNL1       -0.2101
     27 C          61.6376   84.4342    5.4667 C.3     1  UNL1        0.2542
     28 O          61.0673   85.3839    6.4781 O.3     1  UNL1       -0.4561
@<TRIPOS>BOND
     1    27    28    1
     2    28    21    1
     3    21    22   ar
     4    22    23   ar
     5    23    24   ar
     6    24     1    1
     7     1     2   ar
     8     2     3    1
     9     2     4   ar
    10     4     5   ar
    11     5     6   ar
    12     6     7   ar
    13     7     8   ar
    14     8    13    1
    15    13    14   ar
    16    14    15   ar
    17    15    16   ar
    18    16    17   ar
    19    17    18    1
    20    17    19   ar
    21     8     9   ar
    22     9    10   ar
    23    10    11   ar
    24    24    25   ar
    25    25    26   ar
    26    26    21   ar
    27    11     1   ar
    28    11     6   ar
    29    19    13   ar
    30     3    12    1
    31    18    20    1
@<TRIPOS>MOLECULE
*****
 28 31 0 0 0
SMALL
GASTEIGER

@<TRIPOS>ATOM
      1 C          62.1846   86.9050   11.1951 C.ar    1  UNL1        0.0352
      2 C          62.2663   85.4368   11.4907 C.ar    1  UNL1        0.1336
      3 O          61.5273   84.4560   10.6292 O.3     1  UNL1       -0.5055
      4 C          63.0869   84.9491   12.6477 C.ar    1  UNL1        0.0366
      5 C          63.8259   85.9298   13.5092 C.ar    1  UNL1        0.0031
      6 C          63.7443   87.3982   13.2136 C.ar    1  UNL1        0.0002
      7 C          64.4833   88.3789   14.0750 C.ar    1  UNL1        0.0000
      8 C          64.4016   89.8471   13.7794 C.ar    1  UNL1        0.0001
      9 C          63.5810   90.3347   12.6224 C.ar    1  UNL1        0.0000
     10 C          62.8420   89.3541   11.7609 C.ar    1  UNL1        0.0001
     11 C          62.9236   87.8858   12.0565 C.ar    1  UNL1        0.0030
     12 H          61.0146   84.7606    9.9064 H       1  UNL1        0.2922
     13 C          65.1406   90.8279   14.6409 C.ar    1  UNL1        0.0030
     14 C          66.5917   91.1076   14.3836 C.ar    1  UNL1        0.0002
     15 C          67.3307   92.0883   15.2450 C.ar    1  UNL1        0.0031
     16 C          66.6186   92.7894   16.3638 C.ar    1  UNL1        0.0366
     17 C          65.1676   92.5097   16.6211 C.ar    1  UNL1        0.1337
     18 O          64.4555   93.2107   17.7398 O.3     1  UNL1       -0.5055
     19 C          64.4286   91.5289   15.7596 C.ar    1  UNL1        0.0366
     20 H          64.9171   93.8233   18.2779 H       1  UNL1        0.2922
     21 C          59.7227   88.3679    7.7239 C.ar    1  UNL1        0.2250
     22 C          60.1219   86.9242    7.8046 C.ar    1  UNL1        0.0577
     23 C          60.9426   86.4366    8.9617 C.ar    1  UNL1        0.0064
     24 C          61.3640   87.3926   10.0380 C.ar    1  UNL1        0.0223
     25 C          60.9647   88.8363    9.9572 C.ar    1  UNL1        0.1021
     26 N          60.1441   89.3239    8.8002 N.ar    1  UNL1       -0.2101
     27 C          59.2718   90.1313    5.8700 C.3     1  UNL1        0.2542
     28 O          58.9020   88.8555    6.5668 O.3     1  UNL1       -0.4561
@<TRIPOS>BOND
     1    27    28    1
     2    28    21    1
     3    21    22   ar
     4    22    23   ar
     5    23    24   ar
     6    24     1    1
     7     1     2   ar
     8     2     3    1
     9     2     4   ar
    10     4     5   ar
    11     5     6   ar
    12     6     7   ar
    13     7     8   ar
    14     8    13    1
    15    13    14   ar
    16    14    15   ar
    17    15    16   ar
    18    16    17   ar
    19    17    18    1
    20    17    19   ar
    21     8     9   ar
    22     9    10   ar
    23    10    11   ar
    24    24    25   ar
    25    25    26   ar
    26    26    21   ar
    27    11     1   ar
    28    11     6   ar
    29    19    13   ar
    30     3    12    1
    31    18    20    1
@<TRIPOS>MOLECULE
*****
 28 31 0 0 0
SMALL
GASTEIGER

@<TRIPOS>ATOM
      1 C          59.9781   93.6573   -0.4300 C.ar    1  UNL1        0.0352
      2 C          60.3911   93.4306    0.9940 C.ar    1  UNL1        0.1336
      3 O          59.3594   93.4286    2.0829 O.3     1  UNL1       -0.5055
      4 C          61.8358   93.2058    1.3293 C.ar    1  UNL1        0.0366
      5 C          62.8675   93.2078    0.2404 C.ar    1  UNL1        0.0031
      6 C          62.4545   93.4345   -1.1837 C.ar    1  UNL1        0.0002
      7 C          63.4862   93.4364   -2.2725 C.ar    1  UNL1        0.0000
      8 C          63.0732   93.6631   -3.6966 C.ar    1  UNL1        0.0001
      9 C          61.6285   93.8879   -4.0318 C.ar    1  UNL1        0.0000
     10 C          60.5968   93.8859   -2.9430 C.ar    1  UNL1        0.0001
     11 C          61.0098   93.6592   -1.5190 C.ar    1  UNL1        0.0030
     12 H          58.4570   93.5690    1.8735 H       1  UNL1        0.2922
     13 C          64.1049   93.6651   -4.7855 C.ar    1  UNL1        0.0030
     14 C          64.7407   94.9543   -5.2140 C.ar    1  UNL1        0.0002
     15 C          65.7723   94.9563   -6.3028 C.ar    1  UNL1        0.0031
     16 C          66.1683   93.6690   -6.9633 C.ar    1  UNL1        0.0366
     17 C          65.5325   92.3797   -6.5348 C.ar    1  UNL1        0.1337
     18 O          65.9284   91.0925   -7.1952 O.3     1  UNL1       -0.5055
     19 C          64.5008   92.3778   -5.4459 C.ar    1  UNL1        0.0366
     20 H          66.5728   91.0937   -7.8754 H       1  UNL1        0.2922
     21 C          55.6441   94.3316   -1.4357 C.ar    1  UNL1        0.2250
     22 C          56.5536   95.5036   -1.2137 C.ar    1  UNL1        0.0577
     23 C          57.9983   95.2788   -0.8785 C.ar    1  UNL1        0.0064
     24 C          58.5334   93.8820   -0.7653 C.ar    1  UNL1        0.0223
     25 C          57.6239   92.7101   -0.9873 C.ar    1  UNL1        0.1021
     26 N          56.1792   92.9349   -1.3225 N.ar    1  UNL1       -0.2101
     27 C          53.5577   95.8794   -1.4745 C.3     1  UNL1        0.2542
     28 O          54.1994   94.5563   -1.7710 O.3     1  UNL1       -0.4561
@<TRIPOS>BOND
     1    27    28    1
     2    28    21    1
     3    21    22   ar
     4    22    23   ar
     5    23    24   ar
     6    24     1    1
     7     1     2   ar
     8     2     3    1
     9     2     4   ar
    10     4     5   ar
    11     5     6   ar
    12     6     7   ar
    13     7     8   ar
    14     8    13    1
    15    13    14   ar
    16    14    15   ar
    17    15    16   ar
    18    16    17   ar
    19    17    18    1
    20    17    19   ar
    21     8     9   ar
    22     9    10   ar
    23    10    11   ar
    24    24    25   ar
    25    25    26   ar
    26    26    21   ar
    27    11     1   ar
    28    11     6   ar
    29    19    13   ar
    30     3    12    1
    31    18    20    1
