@<TRIPOS>MOLECULE
*****
 45 48 0 0 0
SMALL
GASTEIGER

@<TRIPOS>ATOM
      1 N          62.2689   89.4834   11.2046 N.pl3   1  UNL1       -0.3043
      2 C          61.8295   89.8156   12.5998 C.3     1  UNL1        0.1123
      3 C          62.7500   90.5638   13.5179 C.3     1  UNL1        0.1149
      4 N          64.1099   90.9798   13.0408 N.am    1  UNL1       -0.2747
      5 C          65.0304   91.7279   13.9589 C.2     1  UNL1        0.2442
      6 O          64.5910   92.0601   15.3541 O.2     1  UNL1       -0.2731
      7 C          64.5493   90.6476   11.6456 C.3     1  UNL1        0.1149
      8 C          63.6287   89.8994   10.7275 C.3     1  UNL1        0.1123
      9 C          61.3335   87.2354   10.2983 C.ar    1  UNL1        0.0085
     10 C          60.4130   86.4872    9.3802 C.ar    1  UNL1       -0.0057
     11 C          59.5072   87.2390    8.4504 C.ar    1  UNL1       -0.0220
     12 C          58.5867   86.4908    7.5323 C.3     1  UNL1        0.0310
     13 C          59.5220   88.7388    8.4386 C.ar    1  UNL1       -0.0030
     14 C          60.4426   89.4869    9.3567 C.ar    1  UNL1        0.0139
     15 C          61.3483   88.7352   10.2865 C.ar    1  UNL1        0.0454
     16 C          62.2392   86.4836   11.2281 C.3     1  UNL1        0.0952
     17 C          63.5008   86.5755   13.4974 C.2     1  UNL1        0.2241
     18 O          63.0581   85.1747   13.8002 O.2     1  UNL1       -0.2750
     19 N          63.0913   87.2299   12.2113 N.am    1  UNL1       -0.3021
     20 H          63.3819   88.1493   12.0126 H       1  UNL1        0.1497
     21 C          64.3529   87.3219   14.4807 C.3     1  UNL1        0.1021
     22 C          63.7160   88.2494   15.4727 C.3     1  UNL1        0.0783
     23 C          63.1727   86.2342   17.0198 C.3     1  UNL1        0.0859
     24 N          63.0619   87.6964   16.7040 N.3     1  UNL1       -0.2959
     25 H          63.4565   88.1999   17.4985 H       1  UNL1        0.1233
     26 C          62.2929   84.9856   11.1746 C.3     1  UNL1        0.0242
     27 C          63.2765   84.3020   10.2716 C.3     1  UNL1        0.0020
     28 C          64.1756   83.2315   10.8154 C.3     1  UNL1        0.0001
     29 C          63.3610   84.6890    8.8249 C.3     1  UNL1        0.0001
     30 C          66.3903   92.1439   13.4818 C.3     1  UNL1        0.1564
     31 N          67.3854   92.7081   14.4520 N.am    1  UNL1       -0.2727
     32 C          67.0649   93.5225   15.6702 C.3     1  UNL1        0.0943
     33 C          68.3571   93.8747   16.3456 C.3     1  UNL1        0.0311
     34 C          69.4763   93.2780   15.5447 C.3     1  UNL1        0.0870
     35 C          68.8758   92.5570   14.3744 C.2     1  UNL1        0.2260
     36 O          69.6327   91.8152   13.3130 O.2     1  UNL1       -0.2749
     37 C          66.7551   91.9956   12.0343 C.3     1  UNL1        0.0564
     38 C          66.8598   93.2093   11.1592 C.ar    1  UNL1       -0.0094
     39 C          66.2318   94.5015   11.5906 C.ar    1  UNL1       -0.0025
     40 C          66.3365   95.7152   10.7154 C.ar    1  UNL1        0.0111
     41 C          67.0693   95.6368    9.4089 C.ar    1  UNL1        0.0585
     42 CL         67.1740   96.8505    8.5337 Cl      1  UNL1       -0.0822
     43 C          67.6973   94.3447    8.9776 C.ar    1  UNL1        0.0225
     44 C          67.5925   93.1310    9.8527 C.ar    1  UNL1        0.0546
     45 CL         68.2205   91.8389    9.4214 Cl      1  UNL1       -0.0825
@<TRIPOS>BOND
     1    23    24    1
     2    24    22    1
     3    22    21    1
     4    21    17    1
     5    17    18    2
     6    17    19   am
     7    19    16    1
     8    16    26    1
     9    26    27    1
    10    27    28    1
    11    27    29    1
    12    16     9    1
    13     9    10   ar
    14    10    11   ar
    15    11    12    1
    16    11    13   ar
    17    13    14   ar
    18    14    15   ar
    19    15     1    1
    20     1     2    1
    21     2     3    1
    22     3     4    1
    23     4     5   am
    24     5     6    2
    25     5    30    1
    26    30    37    1
    27    37    38    1
    28    38    39   ar
    29    39    40   ar
    30    40    41   ar
    31    41    42    1
    32    41    43   ar
    33    43    44   ar
    34    44    45    1
    35    30    31    1
    36    31    32    1
    37    32    33    1
    38    33    34    1
    39    34    35    1
    40    35    36    2
    41     4     7    1
    42     7     8    1
    43    15     9   ar
    44     8     1    1
    45    44    38   ar
    46    35    31   am
    47    24    25    1
    48    19    20    1
@<TRIPOS>MOLECULE
*****
 45 48 0 0 0
SMALL
GASTEIGER

@<TRIPOS>ATOM
      1 N          61.6188   86.3393    9.4424 N.pl3   1  UNL1       -0.3043
      2 C          62.7960   85.6735    8.7937 C.3     1  UNL1        0.1123
      3 C          63.6319   84.7022    9.5733 C.3     1  UNL1        0.1149
      4 N          63.2906   84.3968   11.0017 N.am    1  UNL1       -0.2747
      5 C          64.1265   83.4255   11.7814 C.2     1  UNL1        0.2442
      6 O          65.3038   82.7597   11.1327 O.2     1  UNL1       -0.2731
      7 C          62.1134   85.0626   11.6504 C.3     1  UNL1        0.1149
      8 C          61.2775   86.0339   10.8707 C.3     1  UNL1        0.1123
      9 C          60.7273   88.7518    9.0746 C.ar    1  UNL1        0.0085
     10 C          59.8914   89.7230    8.2949 C.ar    1  UNL1       -0.0057
     11 C          59.1111   89.2530    7.1032 C.ar    1  UNL1       -0.0220
     12 C          58.2751   90.2243    6.3235 C.3     1  UNL1        0.0310
     13 C          59.1666   87.8118    6.6912 C.ar    1  UNL1       -0.0030
     14 C          60.0025   86.8406    7.4709 C.ar    1  UNL1        0.0139
     15 C          60.7829   87.3106    8.6627 C.ar    1  UNL1        0.0454
     16 C          61.5076   89.2218   10.2664 C.3     1  UNL1        0.0952
     17 C          63.2926   90.9355   11.0584 C.2     1  UNL1        0.2241
     18 O          62.4290   91.2928   12.2316 O.2     1  UNL1       -0.2750
     19 N          62.8319   89.9000   10.0758 N.am    1  UNL1       -0.3021
     20 H          63.3987   89.6655    9.3058 H       1  UNL1        0.1497
     21 C          64.6169   91.6136   10.8678 C.3     1  UNL1        0.1021
     22 C          65.2633   92.3326   12.0146 C.3     1  UNL1        0.0783
     23 C          65.7910   91.2289   14.3066 C.3     1  UNL1        0.0859
     24 N          64.8631   92.0095   13.4237 N.3     1  UNL1       -0.2959
     25 H          64.6899   92.8990   13.8919 H       1  UNL1        0.1233
     26 C          60.9637   89.0137   11.6486 C.3     1  UNL1        0.0242
     27 C          59.6112   89.5517   12.0114 C.3     1  UNL1        0.0020
     28 C          59.1933   90.9119   11.5371 C.3     1  UNL1        0.0001
     29 C          58.6768   88.7293   12.8484 C.3     1  UNL1        0.0001
     30 C          63.7852   83.1201   13.2097 C.3     1  UNL1        0.1564
     31 N          62.6497   82.1931   13.5278 N.am    1  UNL1       -0.2727
     32 C          61.5966   82.4149   14.5727 C.3     1  UNL1        0.0943
     33 C          60.6639   81.2404   14.5475 C.3     1  UNL1        0.0311
     34 C          61.1405   80.2927   13.4869 C.3     1  UNL1        0.0870
     35 C          62.3678   80.8815   12.8567 C.2     1  UNL1        0.2260
     36 O          63.1719   80.2667   11.7498 O.2     1  UNL1       -0.2749
     37 C          64.5795   83.7417   14.3201 C.3     1  UNL1        0.0564
     38 C          64.2214   85.1083   14.8244 C.ar    1  UNL1       -0.0094
     39 C          64.6966   86.3270   14.0901 C.ar    1  UNL1       -0.0025
     40 C          64.3385   87.6935   14.5944 C.ar    1  UNL1        0.0111
     41 C          63.5052   87.8414   15.8329 C.ar    1  UNL1        0.0585
     42 CL         63.1471   89.2080   16.3372 Cl      1  UNL1       -0.0822
     43 C          63.0301   86.6227   16.5671 C.ar    1  UNL1        0.0225
     44 C          63.3881   85.2562   16.0628 C.ar    1  UNL1        0.0546
     45 CL         62.9130   84.0375   16.7970 Cl      1  UNL1       -0.0825
@<TRIPOS>BOND
     1    23    24    1
     2    24    22    1
     3    22    21    1
     4    21    17    1
     5    17    18    2
     6    17    19   am
     7    19    16    1
     8    16    26    1
     9    26    27    1
    10    27    28    1
    11    27    29    1
    12    16     9    1
    13     9    10   ar
    14    10    11   ar
    15    11    12    1
    16    11    13   ar
    17    13    14   ar
    18    14    15   ar
    19    15     1    1
    20     1     2    1
    21     2     3    1
    22     3     4    1
    23     4     5   am
    24     5     6    2
    25     5    30    1
    26    30    37    1
    27    37    38    1
    28    38    39   ar
    29    39    40   ar
    30    40    41   ar
    31    41    42    1
    32    41    43   ar
    33    43    44   ar
    34    44    45    1
    35    30    31    1
    36    31    32    1
    37    32    33    1
    38    33    34    1
    39    34    35    1
    40    35    36    2
    41     4     7    1
    42     7     8    1
    43    15     9   ar
    44     8     1    1
    45    44    38   ar
    46    35    31   am
    47    24    25    1
    48    19    20    1
@<TRIPOS>MOLECULE
*****
 45 48 0 0 0
SMALL
GASTEIGER

@<TRIPOS>ATOM
      1 N          62.3955   89.5948   11.5556 N.pl3   1  UNL1       -0.3043
      2 C          61.9935   89.6266   13.0004 C.3     1  UNL1        0.1123
      3 C          62.7663   90.4641   13.9757 C.3     1  UNL1        0.1149
      4 N          63.9413   91.2698   13.5062 N.am    1  UNL1       -0.2747
      5 C          64.7142   92.1073   14.4815 C.2     1  UNL1        0.2442
      6 O          64.3121   92.1392   15.9263 O.2     1  UNL1       -0.2731
      7 C          64.3433   91.2380   12.0614 C.3     1  UNL1        0.1149
      8 C          63.5704   90.4004   11.0861 C.3     1  UNL1        0.1123
      9 C          61.6300   87.2624   10.7046 C.ar    1  UNL1        0.0085
     10 C          60.8571   86.4249    9.7293 C.ar    1  UNL1       -0.0057
     11 C          60.0767   87.0823    8.6298 C.ar    1  UNL1       -0.0220
     12 C          59.3038   86.2447    7.6545 C.3     1  UNL1        0.0310
     13 C          60.0693   88.5770    8.5055 C.ar    1  UNL1       -0.0030
     14 C          60.8422   89.4145    9.4808 C.ar    1  UNL1        0.0139
     15 C          61.6226   88.7572   10.5803 C.ar    1  UNL1        0.0454
     16 C          62.4104   86.6051   11.8041 C.3     1  UNL1        0.0952
     17 C          62.7122   84.0327   11.6000 C.2     1  UNL1        0.2241
     18 O          63.7204   84.2375   10.5085 O.2     1  UNL1       -0.2750
     19 N          62.0572   85.2165   12.2478 N.am    1  UNL1       -0.3021
     20 H          61.3954   85.0820   12.9642 H       1  UNL1        0.1497
     21 C          62.3589   82.6440   12.0438 C.3     1  UNL1        0.1021
     22 C          63.0515   82.0359   13.2272 C.3     1  UNL1        0.0783
     23 C          60.9285   80.8965   14.1990 C.3     1  UNL1        0.0859
     24 N          62.2512   81.5723   14.4081 N.3     1  UNL1       -0.2959
     25 H          62.8388   80.9165   14.9229 H       1  UNL1        0.1233
     26 C          63.5441   87.3364   12.4598 C.3     1  UNL1        0.0242
     27 C          64.0521   86.8873   13.7979 C.3     1  UNL1        0.0020
     28 C          64.4771   87.9018   14.8178 C.3     1  UNL1        0.0001
     29 C          64.1352   85.4238   14.1159 C.3     1  UNL1        0.0001
     30 C          65.8891   92.9130   14.0120 C.3     1  UNL1        0.1564
     31 N          67.1494   92.9449   14.8247 N.am    1  UNL1       -0.2727
     32 C          67.8974   94.1758   15.2437 C.3     1  UNL1        0.0943
     33 C          69.0934   93.7432   16.0390 C.3     1  UNL1        0.0311
     34 C          69.0846   92.2450   16.1116 C.3     1  UNL1        0.0870
     35 C          67.8832   91.7515   15.3611 C.2     1  UNL1        0.2260
     36 O          67.4854   90.3169   15.1789 O.2     1  UNL1       -0.2749
     37 C          65.8037   93.6868   12.7298 C.3     1  UNL1        0.0564
     38 C          66.6713   93.3083   11.5662 C.ar    1  UNL1       -0.0094
     39 C          67.5422   92.0895   11.6452 C.ar    1  UNL1       -0.0025
     40 C          68.4099   91.7110   10.4816 C.ar    1  UNL1        0.0111
     41 C          68.4066   92.5513    9.2390 C.ar    1  UNL1        0.0585
     42 CL         69.2742   92.1728    8.0754 Cl      1  UNL1       -0.0822
     43 C          67.5357   93.7699    9.1600 C.ar    1  UNL1        0.0225
     44 C          66.6681   94.1484   10.3236 C.ar    1  UNL1        0.0546
     45 CL         65.7972   95.3671   10.2446 Cl      1  UNL1       -0.0825
@<TRIPOS>BOND
     1    23    24    1
     2    24    22    1
     3    22    21    1
     4    21    17    1
     5    17    18    2
     6    17    19   am
     7    19    16    1
     8    16    26    1
     9    26    27    1
    10    27    28    1
    11    27    29    1
    12    16     9    1
    13     9    10   ar
    14    10    11   ar
    15    11    12    1
    16    11    13   ar
    17    13    14   ar
    18    14    15   ar
    19    15     1    1
    20     1     2    1
    21     2     3    1
    22     3     4    1
    23     4     5   am
    24     5     6    2
    25     5    30    1
    26    30    37    1
    27    37    38    1
    28    38    39   ar
    29    39    40   ar
    30    40    41   ar
    31    41    42    1
    32    41    43   ar
    33    43    44   ar
    34    44    45    1
    35    30    31    1
    36    31    32    1
    37    32    33    1
    38    33    34    1
    39    34    35    1
    40    35    36    2
    41     4     7    1
    42     7     8    1
    43    15     9   ar
    44     8     1    1
    45    44    38   ar
    46    35    31   am
    47    24    25    1
    48    19    20    1
@<TRIPOS>MOLECULE
*****
 45 48 0 0 0
SMALL
GASTEIGER

@<TRIPOS>ATOM
      1 N          61.8791   89.1670   10.9171 N.pl3   1  UNL1       -0.3043
      2 C          61.4636   89.3718   12.3438 C.3     1  UNL1        0.1123
      3 C          62.3568   90.1253   13.2842 C.3     1  UNL1        0.1149
      4 N          63.6655   90.6740   12.7980 N.am    1  UNL1       -0.2747
      5 C          64.5587   91.4274   13.7385 C.2     1  UNL1        0.2442
      6 O          64.1432   91.6322   15.1652 O.2     1  UNL1       -0.2731
      7 C          64.0809   90.4692   11.3713 C.3     1  UNL1        0.1149
      8 C          63.1877   89.7157   10.4309 C.3     1  UNL1        0.1123
      9 C          61.0494   86.9160    9.9198 C.ar    1  UNL1        0.0085
     10 C          60.1562   86.1626    8.9794 C.ar    1  UNL1       -0.0057
     11 C          59.1994   86.9067    8.0957 C.ar    1  UNL1       -0.0220
     12 C          58.3061   86.1532    7.1552 C.3     1  UNL1        0.0310
     13 C          59.1359   88.4043    8.1525 C.ar    1  UNL1       -0.0030
     14 C          60.0291   89.1577    9.0929 C.ar    1  UNL1        0.0139
     15 C          60.9858   88.4135    9.9766 C.ar    1  UNL1        0.0454
     16 C          62.0061   86.1719   10.8035 C.3     1  UNL1        0.0952
     17 C          62.5180   84.9933   13.0615 C.2     1  UNL1        0.2241
     18 O          63.7722   84.4155   12.4757 O.2     1  UNL1       -0.2750
     19 N          61.6350   85.8714   12.2254 N.am    1  UNL1       -0.3021
     20 H          60.8118   86.2506   12.6099 H       1  UNL1        0.1497
     21 C          62.1468   84.6929   14.4835 C.3     1  UNL1        0.1021
     22 C          62.9097   83.6570   15.2550 C.3     1  UNL1        0.0783
     23 C          61.6952   81.6030   14.2275 C.3     1  UNL1        0.0859
     24 N          62.9397   82.2360   14.7757 N.3     1  UNL1       -0.2959
     25 H          63.6433   82.1886   14.0387 H       1  UNL1        0.1233
     26 C          63.3340   85.7281   10.2652 C.3     1  UNL1        0.0242
     27 C          63.4021   84.6198    9.2567 C.3     1  UNL1        0.0020
     28 C          63.8294   83.2457    9.6801 C.3     1  UNL1        0.0001
     29 C          63.0428   84.8856    7.8248 C.3     1  UNL1        0.0001
     30 C          65.8673   91.9761   13.2523 C.3     1  UNL1        0.1564
     31 N          66.8109   92.6308   14.2171 N.am    1  UNL1       -0.2727
     32 C          67.0281   94.1067   14.3739 C.3     1  UNL1        0.0943
     33 C          68.0545   94.3126   15.4482 C.3     1  UNL1        0.0311
     34 C          68.4717   92.9640   15.9554 C.3     1  UNL1        0.0870
     35 C          67.7031   91.9245   15.1945 C.2     1  UNL1        0.2260
     36 O          67.8082   90.4397   15.3787 O.2     1  UNL1       -0.2749
     37 C          66.2323   91.8700   11.8012 C.3     1  UNL1        0.0564
     38 C          66.5223   93.1098   11.0083 C.ar    1  UNL1       -0.0094
     39 C          65.7096   94.3506   11.2323 C.ar    1  UNL1       -0.0025
     40 C          65.9997   95.5904   10.4394 C.ar    1  UNL1        0.0111
     41 C          67.1024   95.5895    9.4224 C.ar    1  UNL1        0.0585
     42 CL         67.3924   96.8293    8.6295 Cl      1  UNL1       -0.0822
     43 C          67.9150   94.3487    9.1984 C.ar    1  UNL1        0.0225
     44 C          67.6249   93.1089    9.9913 C.ar    1  UNL1        0.0546
     45 CL         68.4375   91.8682    9.7674 Cl      1  UNL1       -0.0825
@<TRIPOS>BOND
     1    23    24    1
     2    24    22    1
     3    22    21    1
     4    21    17    1
     5    17    18    2
     6    17    19   am
     7    19    16    1
     8    16    26    1
     9    26    27    1
    10    27    28    1
    11    27    29    1
    12    16     9    1
    13     9    10   ar
    14    10    11   ar
    15    11    12    1
    16    11    13   ar
    17    13    14   ar
    18    14    15   ar
    19    15     1    1
    20     1     2    1
    21     2     3    1
    22     3     4    1
    23     4     5   am
    24     5     6    2
    25     5    30    1
    26    30    37    1
    27    37    38    1
    28    38    39   ar
    29    39    40   ar
    30    40    41   ar
    31    41    42    1
    32    41    43   ar
    33    43    44   ar
    34    44    45    1
    35    30    31    1
    36    31    32    1
    37    32    33    1
    38    33    34    1
    39    34    35    1
    40    35    36    2
    41     4     7    1
    42     7     8    1
    43    15     9   ar
    44     8     1    1
    45    44    38   ar
    46    35    31   am
    47    24    25    1
    48    19    20    1
@<TRIPOS>MOLECULE
*****
 45 48 0 0 0
SMALL
GASTEIGER

@<TRIPOS>ATOM
      1 N          63.1337   86.5546   13.2563 N.pl3   1  UNL1       -0.3043
      2 C          62.4466   87.3048   12.1540 C.3     1  UNL1        0.1123
      3 C          62.8277   88.7261   11.8633 C.3     1  UNL1        0.1149
      4 N          63.8958   89.3973   12.6749 N.am    1  UNL1       -0.2747
      5 C          64.2769   90.8186   12.3841 C.2     1  UNL1        0.2442
      6 O          63.5898   91.5689   11.2818 O.2     1  UNL1       -0.2731
      7 C          64.5829   88.6471   13.7772 C.3     1  UNL1        0.1149
      8 C          64.2018   87.2257   14.0679 C.3     1  UNL1        0.1123
      9 C          62.4085   84.2037   12.4212 C.ar    1  UNL1        0.0085
     10 C          62.0274   82.7823   12.7120 C.ar    1  UNL1       -0.0057
     11 C          61.9905   82.2905   14.1286 C.ar    1  UNL1       -0.0220
     12 C          61.6094   80.8691   14.4193 C.3     1  UNL1        0.0310
     13 C          62.3346   83.2200   15.2544 C.ar    1  UNL1       -0.0030
     14 C          62.7157   84.6413   14.9636 C.ar    1  UNL1        0.0139
     15 C          62.7526   85.1332   13.5470 C.ar    1  UNL1        0.0454
     16 C          62.4454   84.6955   11.0046 C.3     1  UNL1        0.0952
     17 C          61.4070   86.1124    9.0905 C.2     1  UNL1        0.2241
     18 O          62.3965   85.5320    8.1240 O.2     1  UNL1       -0.2750
     19 N          61.4315   85.6941   10.5308 N.am    1  UNL1       -0.3021
     20 H          60.7820   86.0751   11.1651 H       1  UNL1        0.1497
     21 C          60.3930   87.1111    8.6166 C.3     1  UNL1        0.1021
     22 C          60.5509   88.5621    8.9626 C.3     1  UNL1        0.0783
     23 C          59.3718   89.2718    6.7590 C.3     1  UNL1        0.0859
     24 N          59.8687   89.6094    8.1335 N.3     1  UNL1       -0.2959
     25 H          59.0609   89.9284    8.6684 H       1  UNL1        0.1233
     26 C          63.4963   84.1887   10.0619 C.3     1  UNL1        0.0242
     27 C          64.2331   82.9194   10.3722 C.3     1  UNL1        0.0020
     28 C          65.2525   82.8938   11.4722 C.3     1  UNL1        0.0001
     29 C          63.9504   81.6759    9.5824 C.3     1  UNL1        0.0001
     30 C          65.3450   91.4898   13.1957 C.3     1  UNL1        0.1564
     31 N          65.1144   91.7739   14.6504 N.am    1  UNL1       -0.2727
     32 C          63.9354   91.3230   15.4607 C.3     1  UNL1        0.0943
     33 C          64.1147   91.8292   16.8613 C.3     1  UNL1        0.0311
     34 C          65.4045   92.5930   16.9166 C.3     1  UNL1        0.0870
     35 C          66.0224   92.5588   15.5502 C.2     1  UNL1        0.2260
     36 O          67.3203   93.1974   15.1532 O.2     1  UNL1       -0.2749
     37 C          66.6437   91.8768   12.5526 C.3     1  UNL1        0.0564
     38 C          66.7140   93.0926   11.6769 C.ar    1  UNL1       -0.0094
     39 C          66.1004   94.3828   12.1342 C.ar    1  UNL1       -0.0025
     40 C          66.1707   95.5986   11.2586 C.ar    1  UNL1        0.0111
     41 C          66.8546   95.5243    9.9255 C.ar    1  UNL1        0.0585
     42 CL         66.9248   96.7401    9.0498 Cl      1  UNL1       -0.0822
     43 C          67.4681   94.2342    9.4683 C.ar    1  UNL1        0.0225
     44 C          67.3978   93.0183   10.3439 C.ar    1  UNL1        0.0546
     45 CL         68.0114   91.7282    9.8867 Cl      1  UNL1       -0.0825
@<TRIPOS>BOND
     1    23    24    1
     2    24    22    1
     3    22    21    1
     4    21    17    1
     5    17    18    2
     6    17    19   am
     7    19    16    1
     8    16    26    1
     9    26    27    1
    10    27    28    1
    11    27    29    1
    12    16     9    1
    13     9    10   ar
    14    10    11   ar
    15    11    12    1
    16    11    13   ar
    17    13    14   ar
    18    14    15   ar
    19    15     1    1
    20     1     2    1
    21     2     3    1
    22     3     4    1
    23     4     5   am
    24     5     6    2
    25     5    30    1
    26    30    37    1
    27    37    38    1
    28    38    39   ar
    29    39    40   ar
    30    40    41   ar
    31    41    42    1
    32    41    43   ar
    33    43    44   ar
    34    44    45    1
    35    30    31    1
    36    31    32    1
    37    32    33    1
    38    33    34    1
    39    34    35    1
    40    35    36    2
    41     4     7    1
    42     7     8    1
    43    15     9   ar
    44     8     1    1
    45    44    38   ar
    46    35    31   am
    47    24    25    1
    48    19    20    1
@<TRIPOS>MOLECULE
*****
 45 48 0 0 0
SMALL
GASTEIGER

@<TRIPOS>ATOM
      1 N          64.3876   91.3991   12.3916 N.pl3   1  UNL1       -0.3043
      2 C          64.2569   91.8443   10.9652 C.3     1  UNL1        0.1123
      3 C          63.2362   91.2057   10.0707 C.3     1  UNL1        0.1149
      4 N          62.3461   90.1218   10.6026 N.am    1  UNL1       -0.2747
      5 C          61.3253   89.4831    9.7081 C.2     1  UNL1        0.2442
      6 O          61.1946   89.9284    8.2817 O.2     1  UNL1       -0.2731
      7 C          62.4768   89.6765   12.0290 C.3     1  UNL1        0.1149
      8 C          63.4976   90.3152   12.9235 C.3     1  UNL1        0.1123
      9 C          66.4554   92.9407   12.7043 C.ar    1  UNL1        0.0085
     10 C          67.4761   93.5794   13.5988 C.ar    1  UNL1       -0.0057
     11 C          67.4499   93.3151   15.0751 C.ar    1  UNL1       -0.0220
     12 C          68.4707   93.9538   15.9696 C.3     1  UNL1        0.0310
     13 C          66.4029   92.4122   15.6569 C.ar    1  UNL1       -0.0030
     14 C          65.3822   91.7735   14.7624 C.ar    1  UNL1        0.0139
     15 C          65.4084   92.0378   13.2861 C.ar    1  UNL1        0.0454
     16 C          66.4816   93.2050   11.2280 C.3     1  UNL1        0.0952
     17 C          65.7058   95.6840   11.2795 C.2     1  UNL1        0.2241
     18 O          66.5656   95.9281   12.4841 O.2     1  UNL1       -0.2750
     19 N          65.6638   94.3224   10.6515 N.am    1  UNL1       -0.3021
     20 H          65.0994   94.1622    9.8609 H       1  UNL1        0.1497
     21 C          64.8879   96.8014   10.7029 C.3     1  UNL1        0.1021
     22 C          64.5267   96.7926    9.2470 C.3     1  UNL1        0.0783
     23 C          65.3136   96.8475    6.7716 C.3     1  UNL1        0.0859
     24 N          65.5832   96.5353    8.2138 N.3     1  UNL1       -0.2959
     25 H          66.4003   97.0821    8.4856 H       1  UNL1        0.1233
     26 C          67.3257   92.3518   10.3283 C.3     1  UNL1        0.0242
     27 C          68.1910   92.9915    9.2831 C.3     1  UNL1        0.0020
     28 C          68.1516   94.4776    9.0835 C.3     1  UNL1        0.0001
     29 C          69.0958   92.1449    8.4377 C.3     1  UNL1        0.0001
     30 C          60.4353   88.3993   10.2400 C.3     1  UNL1        0.1564
     31 N          59.5497   88.6679   11.4206 N.am    1  UNL1       -0.2727
     32 C          59.1109   87.6599   12.4411 C.3     1  UNL1        0.0943
     33 C          58.2375   88.3606   13.4391 C.3     1  UNL1        0.0311
     34 C          58.1365   89.8018   13.0355 C.3     1  UNL1        0.0870
     35 C          58.9475   89.9917   11.7879 C.2     1  UNL1        0.2260
     36 O          59.1251   91.2792   11.0393 O.2     1  UNL1       -0.2749
     37 C          60.4307   87.0467    9.5914 C.3     1  UNL1        0.0564
     38 C          61.4846   86.0406    9.9477 C.ar    1  UNL1       -0.0094
     39 C          61.8056   85.7685   11.3875 C.ar    1  UNL1       -0.0025
     40 C          62.8596   84.7624   11.7438 C.ar    1  UNL1        0.0111
     41 C          63.5925   84.0283   10.6602 C.ar    1  UNL1        0.0585
     42 CL         64.6464   83.0221   11.0165 Cl      1  UNL1       -0.0822
     43 C          63.2715   84.3003    9.2205 C.ar    1  UNL1        0.0225
     44 C          62.2175   85.3065    8.8642 C.ar    1  UNL1        0.0546
     45 CL         61.8965   85.5786    7.4245 Cl      1  UNL1       -0.0825
@<TRIPOS>BOND
     1    23    24    1
     2    24    22    1
     3    22    21    1
     4    21    17    1
     5    17    18    2
     6    17    19   am
     7    19    16    1
     8    16    26    1
     9    26    27    1
    10    27    28    1
    11    27    29    1
    12    16     9    1
    13     9    10   ar
    14    10    11   ar
    15    11    12    1
    16    11    13   ar
    17    13    14   ar
    18    14    15   ar
    19    15     1    1
    20     1     2    1
    21     2     3    1
    22     3     4    1
    23     4     5   am
    24     5     6    2
    25     5    30    1
    26    30    37    1
    27    37    38    1
    28    38    39   ar
    29    39    40   ar
    30    40    41   ar
    31    41    42    1
    32    41    43   ar
    33    43    44   ar
    34    44    45    1
    35    30    31    1
    36    31    32    1
    37    32    33    1
    38    33    34    1
    39    34    35    1
    40    35    36    2
    41     4     7    1
    42     7     8    1
    43    15     9   ar
    44     8     1    1
    45    44    38   ar
    46    35    31   am
    47    24    25    1
    48    19    20    1
