@<TRIPOS>MOLECULE
*****
 42 44 0 0 0
SMALL
GASTEIGER

@<TRIPOS>ATOM
      1 C          61.8785   86.1569    9.7895 C.3     1  UNL1        0.0920
      2 C          60.7809   85.9872    8.7812 C.3     1  UNL1        0.2582
      3 S          59.7993   87.0970    8.5472 S.O     1  UNL1        0.0319
      4 O          58.7018   86.9274    7.5389 O.co2   1  UNL1       -0.6812
      5 C          59.9153   88.3765    9.3215 C.3     1  UNL1        0.2736
      6 C          61.0128   88.5461   10.3297 C.3     1  UNL1        0.1416
      7 C          61.9944   87.4363   10.5637 C.3     1  UNL1        0.1353
      8 O          63.0919   87.6060   11.5721 O.3     1  UNL1       -0.3827
      9 H          63.0238   88.4836   11.9796 H       1  UNL1        0.2104
     10 N          61.1287   89.8257   11.1040 N.3     1  UNL1       -0.2873
     11 H          61.2261   89.5677   12.0861 H       1  UNL1        0.1238
     12 C          62.2362   90.7899   10.7977 C.3     1  UNL1        0.1188
     13 C          63.3327   91.0144   11.7962 C.ar    1  UNL1        0.1162
     14 C          64.3797   92.0865   11.7297 C.ar    1  UNL1        0.0550
     15 C          65.2689   91.9410   12.9289 C.ar    1  UNL1        0.1541
     16 O          64.7715   90.7789   13.7366 O.2     1  UNL1       -0.3580
     17 N          63.5749   90.2063   13.0365 N.ar    1  UNL1       -0.0804
     18 C          66.4485   92.8057   13.2620 C.3     1  UNL1        0.0673
     19 C          67.3796   92.4100   14.3695 C.3     1  UNL1        0.0072
     20 C          66.4947   93.1044   15.3617 C.3     1  UNL1        0.0004
     21 C          68.2647   91.7156   13.3772 C.3     1  UNL1        0.0004
     22 C          68.3108   92.0143   15.4769 C.3     1  UNL1        0.0004
     23 C          62.8601   85.0471   10.0235 C.3     1  UNL1        0.0342
     24 C          62.4119   83.9274   13.8044 C.ar    1  UNL1        0.1535
     25 C          62.5399   84.7980   12.5897 C.ar    1  UNL1        0.0341
     26 C          62.7321   84.1763   11.2382 C.ar    1  UNL1       -0.0166
     27 C          62.7964   82.6840   11.1014 C.ar    1  UNL1        0.0268
     28 C          62.6684   81.8133   12.3162 C.ar    1  UNL1        0.1556
     29 F          62.7327   80.3209   12.1794 F       1  UNL1       -0.2028
     30 C          62.4762   82.4350   13.6676 C.ar    1  UNL1        0.1037
     31 N          62.3482   81.5643   14.8824 N.pl3   1  UNL1       -0.3529
     32 H          62.3904   80.5848   14.7926 H       1  UNL1        0.1425
     33 H          62.2220   81.9723   15.7694 H       1  UNL1        0.1425
     34 O          62.2197   84.5491   15.1559 O.3     1  UNL1       -0.4665
     35 C          63.3383   85.3185   15.7935 C.3     1  UNL1        0.2891
     36 C          64.7162   85.2669   15.2028 C.3     1  UNL1        0.4366
     37 F          66.0940   85.2155   14.6120 F       1  UNL1       -0.1663
     38 F          64.8286   83.8224   15.5909 F       1  UNL1       -0.1663
     39 F          64.6037   86.7115   14.8147 F       1  UNL1       -0.1663
     40 C          63.0792   86.1394   17.0219 C.3     1  UNL1        0.1945
     41 C          63.0983   88.7335   16.8782 C.3     1  UNL1        0.1743
     42 O          62.3397   87.4399   16.9126 O.3     1  UNL1       -0.3469
@<TRIPOS>UNITY_ATOM_ATTR
3 1
charge 1
4 1
charge -1
@<TRIPOS>BOND
     1    41    42    1
     2    42    40    1
     3    35    40    1
     4    35    34    1
     5    34    24    1
     6    24    25   ar
     7    25    26   ar
     8    26    23    1
     9     1    23    1
    10     1     2    1
    11     2     3    1
    12     3     4    2
    13     3     5    1
    14     5     6    1
    15     6    10    1
    16    10    12    1
    17    12    13    1
    18    13    14   ar
    19    14    15   ar
    20    15    18    1
    21    18    19    1
    22    19    20    1
    23    19    21    1
    24    19    22    1
    25    15    16   ar
    26    16    17   ar
    27     6     7    1
    28     7     8    1
    29    26    27   ar
    30    27    28   ar
    31    28    29    1
    32    28    30   ar
    33    30    31    1
    34    35    36    1
    35    36    37    1
    36    36    38    1
    37    36    39    1
    38    30    24   ar
    39     7     1    1
    40    17    13   ar
    41    10    11    1
    42     8     9    1
    43    31    32    1
    44    31    33    1
@<TRIPOS>MOLECULE
*****
 42 44 0 0 0
SMALL
GASTEIGER

@<TRIPOS>ATOM
      1 C          62.0044   86.0386    9.8739 C.3     1  UNL1        0.0920
      2 C          61.0088   85.7623    8.7864 C.3     1  UNL1        0.2582
      3 S          59.9678   86.7868    8.4447 S.O     1  UNL1        0.0319
      4 O          58.9723   86.5107    7.3572 O.co2   1  UNL1       -0.6812
      5 C          59.9224   88.0876    9.1905 C.3     1  UNL1        0.2736
      6 C          60.9179   88.3637   10.2779 C.3     1  UNL1        0.1416
      7 C          61.9589   87.3392   10.6196 C.3     1  UNL1        0.1353
      8 O          62.9544   87.6155   11.7072 O.3     1  UNL1       -0.3827
      9 H          62.7866   88.4935   12.0838 H       1  UNL1        0.2104
     10 N          60.8725   89.6645   11.0237 N.3     1  UNL1       -0.2873
     11 H          61.1129   89.4567   11.9930 H       1  UNL1        0.1238
     12 C          61.7472   90.8054   10.5956 C.3     1  UNL1        0.1188
     13 C          63.0033   91.1134   11.3553 C.ar    1  UNL1        0.1162
     14 C          64.1934   91.8576   10.8264 C.ar    1  UNL1        0.0550
     15 C          65.2156   91.9355   11.9214 C.ar    1  UNL1        0.1541
     16 O          64.6573   91.2393   13.1271 O.2     1  UNL1       -0.3580
     17 N          63.2900   90.7312   12.7772 N.ar    1  UNL1       -0.0804
     18 C          66.5601   92.5939   11.8273 C.3     1  UNL1        0.0673
     19 C          66.8820   93.4784   10.6594 C.3     1  UNL1        0.0072
     20 C          66.1318   94.6050   11.3059 C.3     1  UNL1        0.0004
     21 C          67.6323   92.3518   10.0129 C.3     1  UNL1        0.0004
     22 C          67.2039   94.3629    9.4915 C.3     1  UNL1        0.0004
     23 C          63.0454   85.0141   10.2157 C.3     1  UNL1        0.0342
     24 C          62.3394   83.7490   13.9104 C.ar    1  UNL1        0.1535
     25 C          62.5449   84.6658   12.7412 C.ar    1  UNL1        0.0341
     26 C          62.8398   84.0971   11.3849 C.ar    1  UNL1       -0.0166
     27 C          62.9292   82.6116   11.1978 C.ar    1  UNL1        0.0268
     28 C          62.7236   81.6947   12.3670 C.ar    1  UNL1        0.1556
     29 F          62.8130   80.2091   12.1799 F       1  UNL1       -0.2028
     30 C          62.4287   82.2634   13.7233 C.ar    1  UNL1        0.1037
     31 N          62.2232   81.3465   14.8925 N.pl3   1  UNL1       -0.3529
     32 H          62.2818   80.3714   14.7697 H       1  UNL1        0.1425
     33 H          62.0296   81.7197   15.7827 H       1  UNL1        0.1425
     34 O          62.0445   84.3177   15.2667 O.3     1  UNL1       -0.4665
     35 C          63.0118   85.2679   15.9081 C.3     1  UNL1        0.2891
     36 C          62.6600   85.9348   17.2049 C.3     1  UNL1        0.4366
     37 F          62.3082   86.6016   18.5016 F       1  UNL1       -0.1663
     38 F          61.2160   85.9606   16.7998 F       1  UNL1       -0.1663
     39 F          64.1040   85.9089   17.6099 F       1  UNL1       -0.1663
     40 C          64.3310   85.5512   15.2528 C.3     1  UNL1        0.1945
     41 C          64.2629   88.1310   14.9523 C.3     1  UNL1        0.1743
     42 O          64.4913   86.7624   14.3824 O.3     1  UNL1       -0.3469
@<TRIPOS>UNITY_ATOM_ATTR
3 1
charge 1
4 1
charge -1
@<TRIPOS>BOND
     1    41    42    1
     2    42    40    1
     3    35    40    1
     4    35    34    1
     5    34    24    1
     6    24    25   ar
     7    25    26   ar
     8    26    23    1
     9     1    23    1
    10     1     2    1
    11     2     3    1
    12     3     4    2
    13     3     5    1
    14     5     6    1
    15     6    10    1
    16    10    12    1
    17    12    13    1
    18    13    14   ar
    19    14    15   ar
    20    15    18    1
    21    18    19    1
    22    19    20    1
    23    19    21    1
    24    19    22    1
    25    15    16   ar
    26    16    17   ar
    27     6     7    1
    28     7     8    1
    29    26    27   ar
    30    27    28   ar
    31    28    29    1
    32    28    30   ar
    33    30    31    1
    34    35    36    1
    35    36    37    1
    36    36    38    1
    37    36    39    1
    38    30    24   ar
    39     7     1    1
    40    17    13   ar
    41    10    11    1
    42     8     9    1
    43    31    32    1
    44    31    33    1
@<TRIPOS>MOLECULE
*****
 42 44 0 0 0
SMALL
GASTEIGER

@<TRIPOS>ATOM
      1 C          61.1877   89.3829   10.7146 C.3     1  UNL1        0.0920
      2 C          60.4918   89.9375    9.5069 C.3     1  UNL1        0.2582
      3 S          60.1306   89.0314    8.3674 S.O     1  UNL1        0.0319
      4 O          59.4348   89.5859    7.1598 O.co2   1  UNL1       -0.6812
      5 C          60.4652   87.5707    8.4355 C.3     1  UNL1        0.2736
      6 C          61.1610   87.0162    9.6431 C.3     1  UNL1        0.1416
      7 C          61.5222   87.9223   10.7826 C.3     1  UNL1        0.1353
      8 O          62.2180   87.3677   11.9903 O.3     1  UNL1       -0.3827
      9 H          62.3586   86.4151   11.8734 H       1  UNL1        0.2104
     10 N          61.4955   85.5555    9.7112 N.3     1  UNL1       -0.2873
     11 H          60.9331   85.0911    8.9983 H       1  UNL1        0.1238
     12 C          62.9107   85.1001    9.5110 C.3     1  UNL1        0.1188
     13 C          63.4714   83.9985   10.3607 C.ar    1  UNL1        0.1162
     14 C          62.9081   83.5174   11.6649 C.ar    1  UNL1        0.0550
     15 C          63.7824   82.4061   12.1656 C.ar    1  UNL1        0.1541
     16 O          64.8861   82.2004   11.1707 O.2     1  UNL1       -0.3580
     17 N          64.6938   83.1846   10.0552 N.ar    1  UNL1       -0.0804
     18 C          63.5873   81.6357   13.4378 C.3     1  UNL1        0.0673
     19 C          62.2176   81.1636   13.8262 C.3     1  UNL1        0.0072
     20 C          62.0546   82.3639   14.7109 C.3     1  UNL1        0.0004
     21 C          62.3805   79.9632   12.9416 C.3     1  UNL1        0.0004
     22 C          60.8478   80.6914   14.2146 C.3     1  UNL1        0.0004
     23 C          61.5489   90.2890   11.8541 C.3     1  UNL1        0.0342
     24 C          65.1170   91.2319   13.3135 C.ar    1  UNL1        0.1535
     25 C          63.7302   90.6692   13.2134 C.ar    1  UNL1        0.0341
     26 C          62.9358   90.8518   11.9542 C.ar    1  UNL1       -0.0166
     27 C          63.5282   91.5971   10.7951 C.ar    1  UNL1        0.0268
     28 C          64.9149   92.1599   10.8953 C.ar    1  UNL1        0.1556
     29 F          65.5074   92.9053    9.7362 F       1  UNL1       -0.2028
     30 C          65.7093   91.9773   12.1545 C.ar    1  UNL1        0.1037
     31 N          67.0962   92.5401   12.2545 N.pl3   1  UNL1       -0.3529
     32 H          67.4850   93.0293   11.4938 H       1  UNL1        0.1425
     33 H          67.6176   92.4202   13.0810 H       1  UNL1        0.1425
     34 O          65.9114   91.0493   14.5727 O.3     1  UNL1       -0.4665
     35 C          65.9408   92.1369   15.6053 C.3     1  UNL1        0.2891
     36 C          67.1143   93.0682   15.6805 C.3     1  UNL1        0.4366
     37 F          68.2878   93.9994   15.7558 F       1  UNL1       -0.1663
     38 F          66.4215   94.0166   14.7475 F       1  UNL1       -0.1663
     39 F          67.8071   92.1198   16.6135 F       1  UNL1       -0.1663
     40 C          64.7967   92.2932   16.5627 C.3     1  UNL1        0.1945
     41 C          63.4022   90.1048   16.6913 C.3     1  UNL1        0.1743
     42 O          63.5128   91.5550   16.3241 O.3     1  UNL1       -0.3469
@<TRIPOS>UNITY_ATOM_ATTR
3 1
charge 1
4 1
charge -1
@<TRIPOS>BOND
     1    41    42    1
     2    42    40    1
     3    35    40    1
     4    35    34    1
     5    34    24    1
     6    24    25   ar
     7    25    26   ar
     8    26    23    1
     9     1    23    1
    10     1     2    1
    11     2     3    1
    12     3     4    2
    13     3     5    1
    14     5     6    1
    15     6    10    1
    16    10    12    1
    17    12    13    1
    18    13    14   ar
    19    14    15   ar
    20    15    18    1
    21    18    19    1
    22    19    20    1
    23    19    21    1
    24    19    22    1
    25    15    16   ar
    26    16    17   ar
    27     6     7    1
    28     7     8    1
    29    26    27   ar
    30    27    28   ar
    31    28    29    1
    32    28    30   ar
    33    30    31    1
    34    35    36    1
    35    36    37    1
    36    36    38    1
    37    36    39    1
    38    30    24   ar
    39     7     1    1
    40    17    13   ar
    41    10    11    1
    42     8     9    1
    43    31    32    1
    44    31    33    1
@<TRIPOS>MOLECULE
*****
 42 44 0 0 0
SMALL
GASTEIGER

@<TRIPOS>ATOM
      1 C          64.2335   90.9408   14.2149 C.3     1  UNL1        0.0920
      2 C          65.5673   91.6232   14.1409 C.3     1  UNL1        0.2582
      3 S          66.0659   92.1550   12.8300 S.O     1  UNL1        0.0319
      4 O          67.3996   92.8374   12.7560 O.co2   1  UNL1       -0.6812
      5 C          65.2308   92.0044   11.5930 C.3     1  UNL1        0.2736
      6 C          63.8971   91.3220   11.6670 C.3     1  UNL1        0.1416
      7 C          63.3984   90.7902   12.9779 C.3     1  UNL1        0.1353
      8 O          62.0647   90.1078   13.0519 O.3     1  UNL1       -0.3827
      9 H          61.6588   90.0949   12.1710 H       1  UNL1        0.2104
     10 N          63.0620   91.1714   10.4301 N.3     1  UNL1       -0.2873
     11 H          63.5319   90.4855    9.8393 H       1  UNL1        0.1238
     12 C          61.6298   90.7394   10.5401 C.3     1  UNL1        0.1188
     13 C          61.1621   89.5046    9.8285 C.ar    1  UNL1        0.1162
     14 C          61.7615   88.1352    9.9523 C.ar    1  UNL1        0.0550
     15 C          60.9827   87.2066    9.0684 C.ar    1  UNL1        0.1541
     16 O          59.9019   88.0022    8.3983 O.2     1  UNL1       -0.3580
     17 N          60.0128   89.4224    8.8680 N.ar    1  UNL1       -0.0804
     18 C          61.2396   85.7400    8.8866 C.3     1  UNL1        0.0673
     19 C          61.8151   85.2336    7.5973 C.3     1  UNL1        0.0072
     20 C          63.1880   85.2567    8.2009 C.3     1  UNL1        0.0004
     21 C          60.4420   85.2104    6.9936 C.3     1  UNL1        0.0004
     22 C          62.3904   84.7271    6.3079 C.3     1  UNL1        0.0004
     23 C          63.7348   90.4090   15.5258 C.3     1  UNL1        0.0342
     24 C          64.2419   86.5081   15.0005 C.ar    1  UNL1        0.1535
     25 C          64.2781   87.9876   14.7564 C.ar    1  UNL1        0.0341
     26 C          63.6986   88.9293   15.7699 C.ar    1  UNL1       -0.0166
     27 C          63.0829   88.3916   17.0275 C.ar    1  UNL1        0.0268
     28 C          63.0467   86.9120   17.2716 C.ar    1  UNL1        0.1556
     29 F          62.4309   86.3742   18.5293 F       1  UNL1       -0.2028
     30 C          63.6262   85.9703   16.2581 C.ar    1  UNL1        0.1037
     31 N          63.5900   84.4907   16.5023 N.pl3   1  UNL1       -0.3529
     32 H          63.1859   84.1377   17.3277 H       1  UNL1        0.1425
     33 H          63.9703   83.8725   15.8371 H       1  UNL1        0.1425
     34 O          64.8215   85.5663   13.9870 O.3     1  UNL1       -0.4665
     35 C          63.9375   84.5695   13.2978 C.3     1  UNL1        0.2891
     36 C          62.6837   85.0264   12.6127 C.3     1  UNL1        0.4366
     37 F          61.4300   85.4832   11.9276 F       1  UNL1       -0.1663
     38 F          61.8802   84.6203   13.8124 F       1  UNL1       -0.1663
     39 F          63.4872   85.4324   11.4130 F       1  UNL1       -0.1663
     40 C          64.3074   83.1158   13.2936 C.3     1  UNL1        0.1945
     41 C          62.4927   81.4530   14.1255 C.3     1  UNL1        0.1743
     42 O          63.7714   82.2025   14.3560 O.3     1  UNL1       -0.3469
@<TRIPOS>UNITY_ATOM_ATTR
3 1
charge 1
4 1
charge -1
@<TRIPOS>BOND
     1    41    42    1
     2    42    40    1
     3    35    40    1
     4    35    34    1
     5    34    24    1
     6    24    25   ar
     7    25    26   ar
     8    26    23    1
     9     1    23    1
    10     1     2    1
    11     2     3    1
    12     3     4    2
    13     3     5    1
    14     5     6    1
    15     6    10    1
    16    10    12    1
    17    12    13    1
    18    13    14   ar
    19    14    15   ar
    20    15    18    1
    21    18    19    1
    22    19    20    1
    23    19    21    1
    24    19    22    1
    25    15    16   ar
    26    16    17   ar
    27     6     7    1
    28     7     8    1
    29    26    27   ar
    30    27    28   ar
    31    28    29    1
    32    28    30   ar
    33    30    31    1
    34    35    36    1
    35    36    37    1
    36    36    38    1
    37    36    39    1
    38    30    24   ar
    39     7     1    1
    40    17    13   ar
    41    10    11    1
    42     8     9    1
    43    31    32    1
    44    31    33    1
@<TRIPOS>MOLECULE
*****
 42 44 0 0 0
SMALL
GASTEIGER

@<TRIPOS>ATOM
      1 C          61.7923   90.1141   10.6222 C.3     1  UNL1        0.0920
      2 C          60.5985   90.4338   11.4724 C.3     1  UNL1        0.2582
      3 S          59.5879   89.3681   11.7774 S.O     1  UNL1        0.0319
      4 O          58.3942   89.6877   12.6275 O.co2   1  UNL1       -0.6812
      5 C          59.7711   87.9827   11.2322 C.3     1  UNL1        0.2736
      6 C          60.9649   87.6630   10.3821 C.3     1  UNL1        0.1416
      7 C          61.9755   88.7287   10.0771 C.3     1  UNL1        0.1353
      8 O          63.1693   88.4090    9.2269 O.3     1  UNL1       -0.3827
      9 H          63.1353   87.4773    8.9591 H       1  UNL1        0.2104
     10 N          61.1481   86.2776    9.8369 N.3     1  UNL1       -0.2873
     11 H          61.1506   86.3592    8.8202 H       1  UNL1        0.1238
     12 C          62.3619   85.4792   10.2102 C.3     1  UNL1        0.1188
     13 C          62.5465   85.0116   11.6234 C.ar    1  UNL1        0.1162
     14 C          62.3715   83.6059   12.1169 C.ar    1  UNL1        0.0550
     15 C          62.6554   83.5930   13.5897 C.ar    1  UNL1        0.1541
     16 O          63.0058   84.9908   14.0066 O.2     1  UNL1       -0.3580
     17 N          62.9385   85.8674   12.7913 N.ar    1  UNL1       -0.0804
     18 C          62.5988   82.3931   14.4881 C.3     1  UNL1        0.0673
     19 C          62.4628   81.0206   13.8986 C.3     1  UNL1        0.0072
     20 C          60.9890   81.0475   14.1756 C.3     1  UNL1        0.0004
     21 C          63.9369   80.9936   13.6215 C.3     1  UNL1        0.0004
     22 C          62.3270   79.6480   13.3090 C.3     1  UNL1        0.0004
     23 C          62.8028   91.1798   10.3172 C.3     1  UNL1        0.0342
     24 C          66.1461   92.6521   11.8681 C.ar    1  UNL1        0.1535
     25 C          65.0411   92.3658   10.8950 C.ar    1  UNL1        0.0341
     26 C          63.9079   91.4661   11.2904 C.ar    1  UNL1       -0.0166
     27 C          63.8796   90.8527   12.6589 C.ar    1  UNL1        0.0268
     28 C          64.9846   91.1390   13.6320 C.ar    1  UNL1        0.1556
     29 F          64.9564   90.5256   15.0006 F       1  UNL1       -0.2028
     30 C          66.1178   92.0387   13.2366 C.ar    1  UNL1        0.1037
     31 N          67.2229   92.3250   14.2098 N.pl3   1  UNL1       -0.3529
     32 H          67.2043   91.9225   15.1080 H       1  UNL1        0.1425
     33 H          67.9667   92.9155   13.9503 H       1  UNL1        0.1425
     34 O          67.2793   93.5518   11.4726 O.3     1  UNL1       -0.4665
     35 C          67.4768   93.9204   10.0321 C.3     1  UNL1        0.2891
     36 C          68.2671   93.0202    9.1292 C.3     1  UNL1        0.4366
     37 F          69.0573   92.1202    8.2262 F       1  UNL1       -0.1663
     38 F          68.6883   92.2019   10.3136 F       1  UNL1       -0.1663
     39 F          67.8458   93.8386    7.9448 F       1  UNL1       -0.1663
     40 C          66.8840   95.1891    9.4945 C.3     1  UNL1        0.1945
     41 C          65.9672   96.7825   11.3304 C.3     1  UNL1        0.1743
     42 O          66.9918   96.4604   10.2832 O.3     1  UNL1       -0.3469
@<TRIPOS>UNITY_ATOM_ATTR
3 1
charge 1
4 1
charge -1
@<TRIPOS>BOND
     1    41    42    1
     2    42    40    1
     3    35    40    1
     4    35    34    1
     5    34    24    1
     6    24    25   ar
     7    25    26   ar
     8    26    23    1
     9     1    23    1
    10     1     2    1
    11     2     3    1
    12     3     4    2
    13     3     5    1
    14     5     6    1
    15     6    10    1
    16    10    12    1
    17    12    13    1
    18    13    14   ar
    19    14    15   ar
    20    15    18    1
    21    18    19    1
    22    19    20    1
    23    19    21    1
    24    19    22    1
    25    15    16   ar
    26    16    17   ar
    27     6     7    1
    28     7     8    1
    29    26    27   ar
    30    27    28   ar
    31    28    29    1
    32    28    30   ar
    33    30    31    1
    34    35    36    1
    35    36    37    1
    36    36    38    1
    37    36    39    1
    38    30    24   ar
    39     7     1    1
    40    17    13   ar
    41    10    11    1
    42     8     9    1
    43    31    32    1
    44    31    33    1
@<TRIPOS>MOLECULE
*****
 42 44 0 0 0
SMALL
GASTEIGER

@<TRIPOS>ATOM
      1 C          63.3114   88.9544   12.5633 C.3     1  UNL1        0.0920
      2 C          63.1557   90.1781   11.7099 C.3     1  UNL1        0.2582
      3 S          62.5569   90.0653   10.3392 S.O     1  UNL1        0.0319
      4 O          62.4011   91.2889    9.4858 O.co2   1  UNL1       -0.6812
      5 C          62.1138   88.7287    9.8220 C.3     1  UNL1        0.2736
      6 C          62.2695   87.5051   10.6754 C.3     1  UNL1        0.1416
      7 C          62.8683   87.6179   12.0461 C.3     1  UNL1        0.1353
      8 O          63.0241   86.3942   12.8996 O.3     1  UNL1       -0.3827
      9 H          62.6909   85.6203   12.4190 H       1  UNL1        0.2104
     10 N          61.8265   86.1686   10.1582 N.3     1  UNL1       -0.2873
     11 H          61.1073   86.3477    9.4575 H       1  UNL1        0.1238
     12 C          62.8225   85.2402    9.5290 C.3     1  UNL1        0.1188
     13 C          63.3921   84.1018   10.3223 C.ar    1  UNL1        0.1162
     14 C          62.8784   83.6012   11.6397 C.ar    1  UNL1        0.0550
     15 C          63.7443   82.4541   12.0692 C.ar    1  UNL1        0.1541
     16 O          64.7931   82.2457   11.0173 O.2     1  UNL1       -0.3580
     17 N          64.5755   83.2640    9.9377 N.ar    1  UNL1       -0.0804
     18 C          63.5886   81.6555   13.3294 C.3     1  UNL1        0.0673
     19 C          62.2275   81.2005   13.7657 C.3     1  UNL1        0.0072
     20 C          62.3479   79.9938   12.8829 C.3     1  UNL1        0.0004
     21 C          62.1072   82.4072   14.6486 C.3     1  UNL1        0.0004
     22 C          60.8664   80.7455   14.2021 C.3     1  UNL1        0.0004
     23 C          63.9102   89.0672   13.9340 C.3     1  UNL1        0.0342
     24 C          66.4371   92.1208   13.7321 C.ar    1  UNL1        0.1535
     25 C          65.6632   90.8938   13.3504 C.ar    1  UNL1        0.0341
     26 C          64.6840   90.2942   14.3157 C.ar    1  UNL1       -0.0166
     27 C          64.4787   90.9216   15.6626 C.ar    1  UNL1        0.0268
     28 C          65.2525   92.1486   16.0442 C.ar    1  UNL1        0.1556
     29 F          65.0472   92.7760   17.3912 F       1  UNL1       -0.2028
     30 C          66.2317   92.7482   15.0790 C.ar    1  UNL1        0.1037
     31 N          67.0055   93.9752   15.4607 N.pl3   1  UNL1       -0.3529
     32 H          66.8707   94.3870   16.3447 H       1  UNL1        0.1425
     33 H          67.6482   94.3687   14.8272 H       1  UNL1        0.1425
     34 O          67.4162   92.7204   12.7668 O.3     1  UNL1       -0.4665
     35 C          66.9713   93.0996   11.3855 C.3     1  UNL1        0.2891
     36 C          67.6362   92.4869   10.1886 C.3     1  UNL1        0.4366
     37 F          68.3012   91.8742    8.9918 F       1  UNL1       -0.1663
     38 F          66.8009   93.3448    9.2853 F       1  UNL1       -0.1663
     39 F          68.4716   91.6290   11.0920 F       1  UNL1       -0.1663
     40 C          65.8613   94.0915   11.2010 C.3     1  UNL1        0.1945
     41 C          66.6928   96.4628   10.5409 C.3     1  UNL1        0.1743
     42 O          66.0799   95.5346   11.5472 O.3     1  UNL1       -0.3469
@<TRIPOS>UNITY_ATOM_ATTR
3 1
charge 1
4 1
charge -1
@<TRIPOS>BOND
     1    41    42    1
     2    42    40    1
     3    35    40    1
     4    35    34    1
     5    34    24    1
     6    24    25   ar
     7    25    26   ar
     8    26    23    1
     9     1    23    1
    10     1     2    1
    11     2     3    1
    12     3     4    2
    13     3     5    1
    14     5     6    1
    15     6    10    1
    16    10    12    1
    17    12    13    1
    18    13    14   ar
    19    14    15   ar
    20    15    18    1
    21    18    19    1
    22    19    20    1
    23    19    21    1
    24    19    22    1
    25    15    16   ar
    26    16    17   ar
    27     6     7    1
    28     7     8    1
    29    26    27   ar
    30    27    28   ar
    31    28    29    1
    32    28    30   ar
    33    30    31    1
    34    35    36    1
    35    36    37    1
    36    36    38    1
    37    36    39    1
    38    30    24   ar
    39     7     1    1
    40    17    13   ar
    41    10    11    1
    42     8     9    1
    43    31    32    1
    44    31    33    1
@<TRIPOS>MOLECULE
*****
 42 44 0 0 0
SMALL
GASTEIGER

@<TRIPOS>ATOM
      1 C          61.9891   86.9039    9.9064 C.3     1  UNL1        0.0920
      2 C          62.4341   87.8216   11.0064 C.3     1  UNL1        0.2582
      3 S          61.8688   89.2077   11.1014 S.O     1  UNL1        0.0319
      4 O          62.3137   90.1254   12.2012 O.co2   1  UNL1       -0.6812
      5 C          60.8585   89.6761   10.0963 C.3     1  UNL1        0.2736
      6 C          60.4136   88.7584    8.9964 C.3     1  UNL1        0.1416
      7 C          60.9789   87.3723    8.9015 C.3     1  UNL1        0.1353
      8 O          60.5339   86.4546    7.8015 O.3     1  UNL1       -0.3827
      9 H          59.8834   86.9096    7.2441 H       1  UNL1        0.2104
     10 N          59.4033   89.2268    7.9914 N.3     1  UNL1       -0.2873
     11 H          59.1762   90.1922    8.2301 H       1  UNL1        0.1238
     12 C          59.7364   89.2092    6.5290 C.3     1  UNL1        0.1188
     13 C          59.3916   90.3874    5.6670 C.ar    1  UNL1        0.1162
     14 C          60.3475   91.1614    4.8084 C.ar    1  UNL1        0.0550
     15 C          59.5771   92.2508    4.1231 C.ar    1  UNL1        0.1541
     16 O          58.1450   92.1501    4.5581 O.2     1  UNL1       -0.3580
     17 N          58.0304   90.9984    5.5123 N.ar    1  UNL1       -0.0804
     18 C          60.1399   93.2632    3.1700 C.3     1  UNL1        0.0673
     19 C          60.6762   92.8241    1.8398 C.3     1  UNL1        0.0072
     20 C          59.3131   92.9883    1.2359 C.3     1  UNL1        0.0004
     21 C          62.0395   92.6598    2.4438 C.3     1  UNL1        0.0004
     22 C          61.2127   92.3849    0.5096 C.3     1  UNL1        0.0004
     23 C          62.5545   85.5177    9.8114 C.3     1  UNL1        0.0342
     24 C          62.3900   84.3294   13.5944 C.ar    1  UNL1        0.1535
     25 C          62.3757   85.2179   12.3860 C.ar    1  UNL1        0.0341
     26 C          62.5688   84.6292   11.0199 C.ar    1  UNL1       -0.0166
     27 C          62.7761   83.1520   10.8623 C.ar    1  UNL1        0.0268
     28 C          62.7904   82.2635   12.0707 C.ar    1  UNL1        0.1556
     29 F          62.9978   80.7862   11.9131 F       1  UNL1       -0.2028
     30 C          62.5973   82.8522   13.4368 C.ar    1  UNL1        0.1037
     31 N          62.6116   81.9636   14.6453 N.pl3   1  UNL1       -0.3529
     32 H          62.7477   80.9941   14.5418 H       1  UNL1        0.1425
     33 H          62.4849   82.3500   15.5419 H       1  UNL1        0.1425
     34 O          62.1969   84.9181   14.9605 O.3     1  UNL1       -0.4665
     35 C          63.3657   85.5011   15.6980 C.3     1  UNL1        0.2891
     36 C          64.7458   85.3956   15.1197 C.3     1  UNL1        0.4366
     37 F          66.1258   85.2900   14.5414 F       1  UNL1       -0.1663
     38 F          64.6510   86.8119   14.6349 F       1  UNL1       -0.1663
     39 F          64.8406   83.9793   15.6044 F       1  UNL1       -0.1663
     40 C          63.1545   86.1896   17.0138 C.3     1  UNL1        0.1945
     41 C          63.0997   88.7810   16.8356 C.3     1  UNL1        0.1743
     42 O          62.3915   87.4799   17.0711 O.3     1  UNL1       -0.3469
@<TRIPOS>UNITY_ATOM_ATTR
3 1
charge 1
4 1
charge -1
@<TRIPOS>BOND
     1    41    42    1
     2    42    40    1
     3    35    40    1
     4    35    34    1
     5    34    24    1
     6    24    25   ar
     7    25    26   ar
     8    26    23    1
     9     1    23    1
    10     1     2    1
    11     2     3    1
    12     3     4    2
    13     3     5    1
    14     5     6    1
    15     6    10    1
    16    10    12    1
    17    12    13    1
    18    13    14   ar
    19    14    15   ar
    20    15    18    1
    21    18    19    1
    22    19    20    1
    23    19    21    1
    24    19    22    1
    25    15    16   ar
    26    16    17   ar
    27     6     7    1
    28     7     8    1
    29    26    27   ar
    30    27    28   ar
    31    28    29    1
    32    28    30   ar
    33    30    31    1
    34    35    36    1
    35    36    37    1
    36    36    38    1
    37    36    39    1
    38    30    24   ar
    39     7     1    1
    40    17    13   ar
    41    10    11    1
    42     8     9    1
    43    31    32    1
    44    31    33    1
@<TRIPOS>MOLECULE
*****
 42 44 0 0 0
SMALL
GASTEIGER

@<TRIPOS>ATOM
      1 C          63.6177   88.6645   15.7761 C.3     1  UNL1        0.0920
      2 C          63.0891   88.4300   17.1602 C.3     1  UNL1        0.2582
      3 S          62.8828   87.0298   17.6570 S.O     1  UNL1        0.0319
      4 O          62.3543   86.7952   19.0410 O.co2   1  UNL1       -0.6812
      5 C          63.2051   85.8640   16.7696 C.3     1  UNL1        0.2736
      6 C          63.7336   86.0986   15.3856 C.3     1  UNL1        0.1416
      7 C          63.9399   87.4988   14.8888 C.3     1  UNL1        0.1353
      8 O          64.4685   87.7333   13.5047 O.3     1  UNL1       -0.3827
      9 H          64.6232   86.8807   13.0689 H       1  UNL1        0.2104
     10 N          64.0559   84.9329   14.4982 N.3     1  UNL1       -0.2873
     11 H          64.4091   84.1913   15.1030 H       1  UNL1        0.1238
     12 C          62.9848   84.3218   13.6442 C.3     1  UNL1        0.1188
     13 C          62.9193   84.6417   12.1802 C.ar    1  UNL1        0.1162
     14 C          62.2753   85.8512   11.5700 C.ar    1  UNL1        0.0550
     15 C          62.4443   85.7653   10.0820 C.ar    1  UNL1        0.1541
     16 O          63.1928   84.5027    9.7726 O.2     1  UNL1       -0.3580
     17 N          63.4863   83.8083   11.0693 N.ar    1  UNL1       -0.0804
     18 C          61.9514   86.7663    9.0794 C.3     1  UNL1        0.0673
     19 C          60.6340   86.5549    8.3939 C.3     1  UNL1        0.0072
     20 C          61.2767   85.5704    7.4624 C.3     1  UNL1        0.0004
     21 C          59.9913   87.5395    9.3254 C.3     1  UNL1        0.0004
     22 C          59.3166   86.3436    7.7084 C.3     1  UNL1        0.0004
     23 C          63.8240   90.0648   15.2793 C.3     1  UNL1        0.0342
     24 C          64.2717   91.5271   11.6171 C.ar    1  UNL1        0.1535
     25 C          64.5470   91.1926   13.0532 C.ar    1  UNL1        0.0341
     26 C          63.5487   90.3992   13.8431 C.ar    1  UNL1       -0.0166
     27 C          62.2751   89.9404   13.1970 C.ar    1  UNL1        0.0268
     28 C          61.9999   90.2749   11.7610 C.ar    1  UNL1        0.1556
     29 F          60.7263   89.8160   11.1148 F       1  UNL1       -0.2028
     30 C          62.9982   91.0682   10.9710 C.ar    1  UNL1        0.1037
     31 N          62.7229   91.4027    9.5349 N.pl3   1  UNL1       -0.3529
     32 H          61.8870   91.1015    9.1108 H       1  UNL1        0.1425
     33 H          63.3781   91.9234    9.0164 H       1  UNL1        0.1425
     34 O          65.2700   92.3204   10.8272 O.3     1  UNL1       -0.4665
     35 C          66.4056   93.0063   11.5270 C.3     1  UNL1        0.2891
     36 C          67.6291   92.2283   11.9119 C.3     1  UNL1        0.4366
     37 F          68.8524   91.4503   12.2966 F       1  UNL1       -0.1663
     38 F          67.4074   92.5912   13.3503 F       1  UNL1       -0.1663
     39 F          67.8507   91.8654   10.4734 F       1  UNL1       -0.1663
     40 C          66.3179   94.4702   11.8421 C.3     1  UNL1        0.1945
     41 C          67.3101   95.0321    9.5076 C.3     1  UNL1        0.1743
     42 O          66.7666   95.4833   10.8309 O.3     1  UNL1       -0.3469
@<TRIPOS>UNITY_ATOM_ATTR
3 1
charge 1
4 1
charge -1
@<TRIPOS>BOND
     1    41    42    1
     2    42    40    1
     3    35    40    1
     4    35    34    1
     5    34    24    1
     6    24    25   ar
     7    25    26   ar
     8    26    23    1
     9     1    23    1
    10     1     2    1
    11     2     3    1
    12     3     4    2
    13     3     5    1
    14     5     6    1
    15     6    10    1
    16    10    12    1
    17    12    13    1
    18    13    14   ar
    19    14    15   ar
    20    15    18    1
    21    18    19    1
    22    19    20    1
    23    19    21    1
    24    19    22    1
    25    15    16   ar
    26    16    17   ar
    27     6     7    1
    28     7     8    1
    29    26    27   ar
    30    27    28   ar
    31    28    29    1
    32    28    30   ar
    33    30    31    1
    34    35    36    1
    35    36    37    1
    36    36    38    1
    37    36    39    1
    38    30    24   ar
    39     7     1    1
    40    17    13   ar
    41    10    11    1
    42     8     9    1
    43    31    32    1
    44    31    33    1
@<TRIPOS>MOLECULE
*****
 42 44 0 0 0
SMALL
GASTEIGER

@<TRIPOS>ATOM
      1 C          61.0611   87.6253   10.4621 C.3     1  UNL1        0.0920
      2 C          59.8924   88.1596   11.2359 C.3     1  UNL1        0.2582
      3 S          59.8476   89.6085   11.6215 S.O     1  UNL1        0.0319
      4 O          58.6789   90.1429   12.3953 O.co2   1  UNL1       -0.6812
      5 C          60.9714   90.5231   11.2332 C.3     1  UNL1        0.2736
      6 C          62.1400   89.9887   10.4595 C.3     1  UNL1        0.1416
      7 C          62.1849   88.5398   10.0739 C.3     1  UNL1        0.1353
      8 O          63.3536   88.0055    9.3001 O.3     1  UNL1       -0.3827
      9 H          63.9852   88.7223    9.1324 H       1  UNL1        0.2104
     10 N          63.2638   90.9033   10.0712 N.3     1  UNL1       -0.2873
     11 H          62.9825   91.3647    9.2061 H       1  UNL1        0.1238
     12 C          63.7115   91.9826   11.0118 C.3     1  UNL1        0.1188
     13 C          64.3047   91.6205   12.3410 C.ar    1  UNL1        0.1162
     14 C          65.7428   91.7782   12.7371 C.ar    1  UNL1        0.0550
     15 C          65.8909   91.2923   14.1485 C.ar    1  UNL1        0.1541
     16 O          64.5442   90.8343   14.6247 O.2     1  UNL1       -0.3580
     17 N          63.5639   91.0372   13.5077 N.ar    1  UNL1       -0.0804
     18 C          67.1623   91.2685   14.9439 C.3     1  UNL1        0.0673
     19 C          67.8172   92.5555   15.3499 C.3     1  UNL1        0.0072
     20 C          68.9559   92.2707   14.4161 C.3     1  UNL1        0.0004
     21 C          66.6784   92.8403   16.2839 C.3     1  UNL1        0.0004
     22 C          68.4720   93.8425   15.7560 C.3     1  UNL1        0.0004
     23 C          61.1060   86.1764   10.0766 C.3     1  UNL1        0.0342
     24 C          63.6165   84.6594   12.7499 C.ar    1  UNL1        0.1535
     25 C          62.6296   85.5796   12.0946 C.ar    1  UNL1        0.0341
     26 C          62.0929   85.2561   10.7318 C.ar    1  UNL1       -0.0166
     27 C          62.5430   84.0125   10.0242 C.ar    1  UNL1        0.0268
     28 C          63.5299   83.0924   10.6795 C.ar    1  UNL1        0.1556
     29 F          63.9801   81.8486    9.9719 F       1  UNL1       -0.2028
     30 C          64.0666   83.4158   12.0423 C.ar    1  UNL1        0.1037
     31 N          65.0535   82.4956   12.6975 N.pl3   1  UNL1       -0.3529
     32 H          65.3489   81.6793   12.2331 H       1  UNL1        0.1425
     33 H          65.4058   82.7079   13.5920 H       1  UNL1        0.1425
     34 O          64.1532   84.9829   14.1127 O.3     1  UNL1       -0.4665
     35 C          63.2650   84.8658   15.3158 C.3     1  UNL1        0.2891
     36 C          63.2763   85.9391   16.3637 C.3     1  UNL1        0.4366
     37 F          63.2876   87.0123   17.4115 F       1  UNL1       -0.1663
     38 F          62.1777   85.2316   17.1002 F       1  UNL1       -0.1663
     39 F          64.3749   86.6466   15.6272 F       1  UNL1       -0.1663
     40 C          62.3655   83.6755   15.4710 C.3     1  UNL1        0.1945
     41 C          61.9260   81.4144   14.2692 C.3     1  UNL1        0.1743
     42 O          62.8387   82.3173   15.0449 O.3     1  UNL1       -0.3469
@<TRIPOS>UNITY_ATOM_ATTR
3 1
charge 1
4 1
charge -1
@<TRIPOS>BOND
     1    41    42    1
     2    42    40    1
     3    35    40    1
     4    35    34    1
     5    34    24    1
     6    24    25   ar
     7    25    26   ar
     8    26    23    1
     9     1    23    1
    10     1     2    1
    11     2     3    1
    12     3     4    2
    13     3     5    1
    14     5     6    1
    15     6    10    1
    16    10    12    1
    17    12    13    1
    18    13    14   ar
    19    14    15   ar
    20    15    18    1
    21    18    19    1
    22    19    20    1
    23    19    21    1
    24    19    22    1
    25    15    16   ar
    26    16    17   ar
    27     6     7    1
    28     7     8    1
    29    26    27   ar
    30    27    28   ar
    31    28    29    1
    32    28    30   ar
    33    30    31    1
    34    35    36    1
    35    36    37    1
    36    36    38    1
    37    36    39    1
    38    30    24   ar
    39     7     1    1
    40    17    13   ar
    41    10    11    1
    42     8     9    1
    43    31    32    1
    44    31    33    1
