@<TRIPOS>MOLECULE
*****
 25 28 0 0 0
SMALL
GASTEIGER

@<TRIPOS>ATOM
      1 C          64.2866   90.9318   13.4772 C.3     1  UNL1        0.0259
      2 C          63.4661   90.3347   12.3725 C.3     1  UNL1        0.1250
      3 C          62.8946   91.2164   11.3020 C.3     1  UNL1        0.2254
      4 O          62.0742   90.6194   10.1974 O.3     1  UNL1       -0.4724
      5 C          61.8251   89.1405   10.1632 C.ar    1  UNL1        0.1522
      6 C          61.0047   88.5435    9.0585 C.ar    1  UNL1        0.0382
      7 C          60.7557   87.0647    9.0243 C.ar    1  UNL1        0.0032
      8 C          61.3272   86.1830   10.0949 C.ar    1  UNL1        0.0015
      9 C          62.1476   86.7800   11.1995 C.ar    1  UNL1        0.0180
     10 C          62.3966   88.2588   11.2337 C.ar    1  UNL1        0.0893
     11 N          63.2171   88.8559   12.3384 N.am    1  UNL1       -0.2382
     12 C          63.7886   87.9742   13.4089 C.2     1  UNL1        0.3111
     13 O          64.6091   88.5713   14.5135 O.2     1  UNL1       -0.2520
     14 N          63.5396   86.4954   13.3747 N.am    1  UNL1       -0.2638
     15 C          62.7191   85.8983   12.2700 C.3     1  UNL1        0.0953
     16 C          62.4701   84.4196   12.2359 C.3     1  UNL1        0.0275
     17 C          63.0416   83.5378   13.3064 C.3     1  UNL1        0.0431
     18 C          63.8621   84.1349   14.4110 C.3     1  UNL1        0.0275
     19 C          64.1111   85.6137   14.4452 C.3     1  UNL1        0.0953
     20 C          62.7926   82.0590   13.2722 C.ar    1  UNL1        0.0539
     21 C          62.9512   81.1656   12.0777 C.ar    1  UNL1        0.1131
     22 N          62.5979   79.7684   12.4937 N.ar    1  UNL1       -0.2229
     23 C          62.2209   79.7983   13.9453 C.ar    1  UNL1        0.1748
     24 N          62.3412   81.2140   14.4264 N.ar    1  UNL1       -0.3382
     25 H          62.1564   81.5326   15.3394 H       1  UNL1        0.1672
@<TRIPOS>BOND
     1     1     2    1
     2     2     3    1
     3     3     4    1
     4     4     5    1
     5     5     6   ar
     6     6     7   ar
     7     7     8   ar
     8     8     9   ar
     9     9    10   ar
    10    10    11    1
    11    11    12   am
    12    12    13    2
    13    12    14   am
    14    14    15    1
    15    15    16    1
    16    16    17    1
    17    17    20    1
    18    20    21   ar
    19    21    22   ar
    20    22    23   ar
    21    23    24   ar
    22    17    18    1
    23    18    19    1
    24    11     2    1
    25    19    14    1
    26    10     5   ar
    27    24    20   ar
    28    24    25    1
@<TRIPOS>MOLECULE
*****
 25 28 0 0 0
SMALL
GASTEIGER

@<TRIPOS>ATOM
      1 C          62.8174   84.3453   12.5677 C.3     1  UNL1        0.0259
      2 C          63.0537   85.8238   12.6594 C.3     1  UNL1        0.1250
      3 C          63.8952   86.3815   13.7688 C.3     1  UNL1        0.2254
      4 O          64.1315   87.8599   13.8605 O.3     1  UNL1       -0.4724
      5 C          63.5263   88.7807   12.8427 C.ar    1  UNL1        0.1522
      6 C          63.7625   90.2591   12.9344 C.ar    1  UNL1        0.0382
      7 C          63.1573   91.1799   11.9167 C.ar    1  UNL1        0.0032
      8 C          62.3158   90.6222   10.8072 C.ar    1  UNL1        0.0015
      9 C          62.0795   89.1438   10.7155 C.ar    1  UNL1        0.0180
     10 C          62.6847   88.2231   11.7333 C.ar    1  UNL1        0.0893
     11 N          62.4485   86.7446   11.6416 N.am    1  UNL1       -0.2382
     12 C          61.6069   86.1869   10.5322 C.2     1  UNL1        0.3111
     13 O          61.3707   84.7085   10.4405 O.2     1  UNL1       -0.2520
     14 N          61.0017   87.1077    9.5144 N.am    1  UNL1       -0.2638
     15 C          61.2380   88.5861    9.6061 C.3     1  UNL1        0.0953
     16 C          60.6328   89.5069    8.5883 C.3     1  UNL1        0.0275
     17 C          59.7912   88.9492    7.4789 C.3     1  UNL1        0.0431
     18 C          59.5550   87.4708    7.3872 C.3     1  UNL1        0.0275
     19 C          60.1602   86.5501    8.4049 C.3     1  UNL1        0.0953
     20 C          59.1860   89.8701    6.4611 C.ar    1  UNL1        0.0539
     21 C          59.9406   90.7444    5.5040 C.ar    1  UNL1        0.1131
     22 N          58.9410   91.4930    4.6731 N.ar    1  UNL1       -0.2229
     23 C          57.5685   91.0811    5.1167 C.ar    1  UNL1        0.1748
     24 N          57.7199   90.0782    6.2217 N.ar    1  UNL1       -0.3382
     25 H          56.9860   89.6344    6.7050 H       1  UNL1        0.1672
@<TRIPOS>BOND
     1     1     2    1
     2     2     3    1
     3     3     4    1
     4     4     5    1
     5     5     6   ar
     6     6     7   ar
     7     7     8   ar
     8     8     9   ar
     9     9    10   ar
    10    10    11    1
    11    11    12   am
    12    12    13    2
    13    12    14   am
    14    14    15    1
    15    15    16    1
    16    16    17    1
    17    17    20    1
    18    20    21   ar
    19    21    22   ar
    20    22    23   ar
    21    23    24   ar
    22    17    18    1
    23    18    19    1
    24    11     2    1
    25    19    14    1
    26    10     5   ar
    27    24    20   ar
    28    24    25    1
@<TRIPOS>MOLECULE
*****
 25 28 0 0 0
SMALL
GASTEIGER

@<TRIPOS>ATOM
      1 C          61.4030   85.6776    9.2008 C.3     1  UNL1        0.0259
      2 C          62.0544   85.1448   10.4425 C.3     1  UNL1        0.1250
      3 C          62.1189   83.6651   10.6798 C.3     1  UNL1        0.2254
      4 O          62.7702   83.1323   11.9214 O.3     1  UNL1       -0.4724
      5 C          63.3571   84.0792   12.9260 C.ar    1  UNL1        0.1522
      6 C          64.0084   83.5464   14.1677 C.ar    1  UNL1        0.0382
      7 C          64.5952   84.4933   15.1721 C.ar    1  UNL1        0.0032
      8 C          64.5307   85.9730   14.9349 C.ar    1  UNL1        0.0015
      9 C          63.8794   86.5058   13.6932 C.ar    1  UNL1        0.0180
     10 C          63.2926   85.5589   12.6888 C.ar    1  UNL1        0.0893
     11 N          62.6412   86.0917   11.4470 N.am    1  UNL1       -0.2382
     12 C          62.5766   87.5714   11.2098 C.2     1  UNL1        0.3111
     13 O          61.9253   88.1042    9.9681 O.2     1  UNL1       -0.2520
     14 N          63.1635   88.5184   12.2143 N.am    1  UNL1       -0.2638
     15 C          63.8148   87.9855   13.4560 C.3     1  UNL1        0.0953
     16 C          64.4016   88.9325   14.4604 C.3     1  UNL1        0.0275
     17 C          64.3371   90.4122   14.2232 C.3     1  UNL1        0.0431
     18 C          63.6857   90.9450   12.9815 C.3     1  UNL1        0.0275
     19 C          63.0989   89.9981   11.9771 C.3     1  UNL1        0.0953
     20 C          64.9239   91.3591   15.2278 C.ar    1  UNL1        0.0539
     21 C          64.2467   91.8578   16.4698 C.ar    1  UNL1        0.1131
     22 N          65.1952   92.7805   17.1763 N.ar    1  UNL1       -0.2229
     23 C          66.4586   92.8519   16.3708 C.ar    1  UNL1        0.1748
     24 N          66.2909   91.9735   15.1666 N.ar    1  UNL1       -0.3382
     25 H          66.9606   91.8261   14.4601 H       1  UNL1        0.1672
@<TRIPOS>BOND
     1     1     2    1
     2     2     3    1
     3     3     4    1
     4     4     5    1
     5     5     6   ar
     6     6     7   ar
     7     7     8   ar
     8     8     9   ar
     9     9    10   ar
    10    10    11    1
    11    11    12   am
    12    12    13    2
    13    12    14   am
    14    14    15    1
    15    15    16    1
    16    16    17    1
    17    17    20    1
    18    20    21   ar
    19    21    22   ar
    20    22    23   ar
    21    23    24   ar
    22    17    18    1
    23    18    19    1
    24    11     2    1
    25    19    14    1
    26    10     5   ar
    27    24    20   ar
    28    24    25    1
@<TRIPOS>MOLECULE
*****
 25 28 0 0 0
SMALL
GASTEIGER

@<TRIPOS>ATOM
      1 C          60.5149   88.5863    8.6398 C.3     1  UNL1        0.0259
      2 C          61.0706   87.6696    9.6891 C.3     1  UNL1        0.1250
      3 C          60.6817   86.2209    9.7016 C.3     1  UNL1        0.2254
      4 O          61.2374   85.3042   10.7507 O.3     1  UNL1       -0.4724
      5 C          62.1820   85.8362   11.7875 C.ar    1  UNL1        0.1522
      6 C          62.7377   84.9195   12.8367 C.ar    1  UNL1        0.0382
      7 C          63.6823   85.4514   13.8733 C.ar    1  UNL1        0.0032
      8 C          64.0712   86.9001   13.8608 C.ar    1  UNL1        0.0015
      9 C          63.5155   87.8168   12.8116 C.ar    1  UNL1        0.0180
     10 C          62.5709   87.2848   11.7750 C.ar    1  UNL1        0.0893
     11 N          62.0152   88.2015   10.7257 N.am    1  UNL1       -0.2382
     12 C          62.4041   89.6502   10.7132 C.2     1  UNL1        0.3111
     13 O          61.8484   90.5669    9.6640 O.2     1  UNL1       -0.2520
     14 N          63.3488   90.1821   11.7500 N.am    1  UNL1       -0.2638
     15 C          63.9045   89.2654   12.7991 C.3     1  UNL1        0.0953
     16 C          64.8491   89.7974   13.8358 C.3     1  UNL1        0.0275
     17 C          65.2380   91.2460   13.8233 C.3     1  UNL1        0.0431
     18 C          64.6823   92.1627   12.7741 C.3     1  UNL1        0.0275
     19 C          63.7377   91.6308   11.7374 C.3     1  UNL1        0.0953
     20 C          66.1826   91.7779   14.8600 C.ar    1  UNL1        0.0539
     21 C          65.8246   92.6964   15.9906 C.ar    1  UNL1        0.1131
     22 N          67.0718   92.9709   16.7775 N.ar    1  UNL1       -0.2229
     23 C          68.2006   92.2221   16.1332 C.ar    1  UNL1        0.1748
     24 N          67.6510   91.4848   14.9481 N.ar    1  UNL1       -0.3382
     25 H          68.1641   90.9095   14.3357 H       1  UNL1        0.1672
@<TRIPOS>BOND
     1     1     2    1
     2     2     3    1
     3     3     4    1
     4     4     5    1
     5     5     6   ar
     6     6     7   ar
     7     7     8   ar
     8     8     9   ar
     9     9    10   ar
    10    10    11    1
    11    11    12   am
    12    12    13    2
    13    12    14   am
    14    14    15    1
    15    15    16    1
    16    16    17    1
    17    17    20    1
    18    20    21   ar
    19    21    22   ar
    20    22    23   ar
    21    23    24   ar
    22    17    18    1
    23    18    19    1
    24    11     2    1
    25    19    14    1
    26    10     5   ar
    27    24    20   ar
    28    24    25    1
@<TRIPOS>MOLECULE
*****
 25 28 0 0 0
SMALL
GASTEIGER

@<TRIPOS>ATOM
      1 C          61.9297   90.5169    9.3602 C.3     1  UNL1        0.0259
      2 C          62.5838   90.3771   10.7028 C.3     1  UNL1        0.1250
      3 C          63.0732   91.5948   11.4291 C.3     1  UNL1        0.2254
      4 O          63.7273   91.4550   12.7717 O.3     1  UNL1       -0.4724
      5 C          63.8920   90.0974   13.3881 C.ar    1  UNL1        0.1522
      6 C          64.5461   89.9576   14.7307 C.ar    1  UNL1        0.0382
      7 C          64.7107   88.6000   15.3469 C.ar    1  UNL1        0.0032
      8 C          64.2213   87.3823   14.6206 C.ar    1  UNL1        0.0015
      9 C          63.5672   87.5221   13.2780 C.ar    1  UNL1        0.0180
     10 C          63.4026   88.8796   12.6618 C.ar    1  UNL1        0.0893
     11 N          62.7485   89.0195   11.3191 N.am    1  UNL1       -0.2382
     12 C          62.2591   87.8017   10.5928 C.2     1  UNL1        0.3111
     13 O          61.6050   87.9415    9.2502 O.2     1  UNL1       -0.2520
     14 N          62.4238   86.4441   11.2091 N.am    1  UNL1       -0.2638
     15 C          63.0778   86.3043   12.5517 C.3     1  UNL1        0.0953
     16 C          63.2425   84.9467   13.1680 C.3     1  UNL1        0.0275
     17 C          62.7531   83.7290   12.4417 C.3     1  UNL1        0.0431
     18 C          62.0990   83.8688   11.0991 C.3     1  UNL1        0.0275
     19 C          61.9344   85.2263   10.4828 C.3     1  UNL1        0.0953
     20 C          62.9178   82.3714   13.0580 C.ar    1  UNL1        0.0539
     21 C          64.1378   81.8692   13.7718 C.ar    1  UNL1        0.1131
     22 N          63.8655   80.4651   14.2237 N.ar    1  UNL1       -0.2229
     23 C          62.4771   80.0994   13.7893 C.ar    1  UNL1        0.1748
     24 N          61.8914   81.2776   13.0689 N.ar    1  UNL1       -0.3382
     25 H          60.9914   81.3247   12.6727 H       1  UNL1        0.1672
@<TRIPOS>BOND
     1     1     2    1
     2     2     3    1
     3     3     4    1
     4     4     5    1
     5     5     6   ar
     6     6     7   ar
     7     7     8   ar
     8     8     9   ar
     9     9    10   ar
    10    10    11    1
    11    11    12   am
    12    12    13    2
    13    12    14   am
    14    14    15    1
    15    15    16    1
    16    16    17    1
    17    17    20    1
    18    20    21   ar
    19    21    22   ar
    20    22    23   ar
    21    23    24   ar
    22    17    18    1
    23    18    19    1
    24    11     2    1
    25    19    14    1
    26    10     5   ar
    27    24    20   ar
    28    24    25    1
