@<TRIPOS>MOLECULE
*****
 67 74 0 0 0
SMALL
GASTEIGER

@<TRIPOS>ATOM
      1 N          62.4488   95.1557   -3.4080 N.3     1  UNL1       -0.1862
      2 C          61.4191   94.7474   -4.4195 C.3     1  UNL1        0.1775
      3 C          60.0975   94.2019   -3.9662 C.2     1  UNL1        0.2452
      4 O          59.0678   93.7936   -4.9777 O.2     1  UNL1       -0.2732
      5 N          59.8054   94.0646   -2.5013 N.am    1  UNL1       -0.2541
      6 C          58.4837   93.5190   -2.0480 C.3     1  UNL1        0.1577
      7 C          58.1917   93.3817   -0.5831 C.2     1  UNL1        0.2445
      8 O          56.8700   92.8361   -0.1298 O.2     1  UNL1       -0.2731
      9 N          59.2213   93.7900    0.4284 N.am    1  UNL1       -0.2705
     10 C          60.5430   94.3355   -0.0249 C.3     1  UNL1        0.1359
     11 C          60.8350   94.4728   -1.4898 C.3     1  UNL1        0.1908
     12 N          62.1567   95.0184   -1.9432 N.am    1  UNL1       -0.1863
     13 C          63.1863   95.4267   -0.9316 C.2     1  UNL1        0.3191
     14 O          62.8943   95.2894    0.5332 O.2     1  UNL1       -0.2512
     15 N          64.5080   95.9722   -1.3850 N.am    1  UNL1       -0.2836
     16 H          64.6997   96.0623   -2.3464 H       1  UNL1        0.1513
     17 C          63.7704   95.7013   -3.8614 C.3     1  UNL1        0.1188
     18 C          65.6502   95.2205   -5.5892 C.2     1  UNL1       -0.0034
     19 C          64.2114   95.5138   -5.2828 C.2     1  UNL1       -0.0071
     20 C          57.4541   93.1107   -3.0595 C.3     1  UNL1        0.0556
     21 C          56.3364   94.0470   -3.4118 C.ar    1  UNL1       -0.0198
     22 C          55.3923   94.5221   -2.3475 C.ar    1  UNL1       -0.0011
     23 C          54.2746   95.4583   -2.6998 C.ar    1  UNL1        0.0363
     24 C          54.1010   95.9195   -4.1166 C.ar    1  UNL1        0.1337
     25 O          52.9832   96.8557   -4.4689 O.3     1  UNL1       -0.5055
     26 C          55.0451   95.4444   -5.1810 C.ar    1  UNL1        0.0363
     27 C          56.1628   94.5081   -4.8286 C.ar    1  UNL1       -0.0011
     28 H          52.3935   97.1525   -3.8040 H       1  UNL1        0.2922
     29 C          58.9293   93.6527    1.8933 C.3     1  UNL1        0.1217
     30 C          59.7847   92.7657    2.7487 C.ar    1  UNL1        0.0135
     31 C          61.2604   92.6763    2.4954 C.ar    1  UNL1       -0.0012
     32 C          62.1158   91.7894    3.3507 C.ar    1  UNL1       -0.0002
     33 C          61.4955   90.9920    4.4595 C.ar    1  UNL1        0.0015
     34 C          60.0197   91.0815    4.7128 C.ar    1  UNL1        0.0170
     35 C          59.1331   90.4187    5.7250 C.ar    1  UNL1        0.0186
     36 C          57.7298   90.8959    5.4952 C.ar    1  UNL1        0.0759
     37 N          57.7491   91.8537    4.3410 N.ar    1  UNL1       -0.3242
     38 C          56.5616   92.5708    3.7705 C.3     1  UNL1        0.1305
     39 C          59.1643   91.9683    3.8574 C.ar    1  UNL1        0.0575
     40 C          59.5727   89.4488    6.7816 C.ar    1  UNL1        0.0016
     41 C          60.2562   89.9479    8.0201 C.ar    1  UNL1        0.0013
     42 C          60.6957   88.9780    9.0766 C.ar    1  UNL1        0.0147
     43 C          60.4519   87.5092    8.8946 C.ar    1  UNL1        0.0505
     44 C          59.7684   87.0102    7.6561 C.ar    1  UNL1        0.0147
     45 C          59.3288   87.9800    6.5997 C.ar    1  UNL1        0.0013
     46 N          60.8915   86.5395    9.9511 N.am    1  UNL1       -0.2804
     47 C          62.1946   85.8109    9.8052 C.2     1  UNL1        0.2495
     48 O          63.0581   86.0523    8.6027 O.2     1  UNL1       -0.2698
     49 H          60.3247   86.3811   10.7404 H       1  UNL1        0.1552
     50 C          62.6341   84.8412   10.8618 C.ar    1  UNL1        0.0538
     51 C          62.1691   85.0130   12.2775 C.ar    1  UNL1        0.0058
     52 C          62.6086   84.0433   13.3342 C.ar    1  UNL1        0.0147
     53 C          63.5130   82.9018   12.9751 C.ar    1  UNL1        0.0478
     54 C          63.9779   82.7300   11.5593 C.ar    1  UNL1        0.0147
     55 C          63.5385   83.6997   10.5027 C.ar    1  UNL1        0.0058
     56 N          63.9525   81.9321   14.0317 N.pl3   1  UNL1       -0.3075
     57 C          63.6568   80.4696   13.8772 C.3     1  UNL1        0.0908
     58 C          62.4427   80.0261   13.1161 C.3     1  UNL1        0.0232
     59 C          64.6877   82.4247   15.2428 C.3     1  UNL1        0.0908
     60 C          64.6654   83.8834   15.5919 C.3     1  UNL1        0.0232
     61 C          65.5376   96.3805   -0.3735 C.3     1  UNL1        0.1177
     62 C          65.4319   95.8956    1.0420 C.ar    1  UNL1       -0.0025
     63 C          65.6164   96.8559    2.1795 C.ar    1  UNL1       -0.0026
     64 C          65.5107   96.3711    3.5950 C.ar    1  UNL1       -0.0003
     65 C          65.2205   94.9259    3.8731 C.ar    1  UNL1       -0.0000
     66 C          65.0360   93.9656    2.7357 C.ar    1  UNL1       -0.0003
     67 C          65.1417   94.4504    1.3201 C.ar    1  UNL1       -0.0026
@<TRIPOS>BOND
     1    18    19    2
     2    19    17    1
     3    17     1    1
     4     1     2    1
     5     2     3    1
     6     3     4    2
     7     3     5   am
     8     5     6    1
     9     6    20    1
    10    20    21    1
    11    21    22   ar
    12    22    23   ar
    13    23    24   ar
    14    24    25    1
    15    24    26   ar
    16    26    27   ar
    17     6     7    1
    18     7     8    2
    19     7     9   am
    20     9    29    1
    21    29    30    1
    22    30    31   ar
    23    31    32   ar
    24    32    33   ar
    25    33    34   ar
    26    34    35   ar
    27    35    40    1
    28    40    41   ar
    29    41    42   ar
    30    42    43   ar
    31    43    46    1
    32    46    47   am
    33    47    48    2
    34    47    50    1
    35    50    51   ar
    36    51    52   ar
    37    52    53   ar
    38    53    56    1
    39    56    57    1
    40    57    58    1
    41    56    59    1
    42    59    60    1
    43    53    54   ar
    44    54    55   ar
    45    43    44   ar
    46    44    45   ar
    47    35    36   ar
    48    36    37   ar
    49    37    38    1
    50    37    39   ar
    51     9    10    1
    52    11    10    1
    53    11    12    1
    54    12    13   am
    55    13    14    2
    56    13    15   am
    57    15    61    1
    58    61    62    1
    59    62    63   ar
    60    63    64   ar
    61    64    65   ar
    62    65    66   ar
    63    66    67   ar
    64    12     1    1
    65    67    62   ar
    66    11     5    1
    67    27    21   ar
    68    39    30   ar
    69    39    34   ar
    70    45    40   ar
    71    55    50   ar
    72    25    28    1
    73    46    49    1
    74    15    16    1
@<TRIPOS>MOLECULE
*****
 67 74 0 0 0
SMALL
GASTEIGER

@<TRIPOS>ATOM
      1 N          62.4478   94.7177   -3.5503 N.3     1  UNL1       -0.1862
      2 C          61.3423   94.6206   -4.5594 C.3     1  UNL1        0.1775
      3 C          59.9352   94.3628   -4.1079 C.2     1  UNL1        0.2452
      4 O          58.8297   94.2658   -5.1171 O.2     1  UNL1       -0.2732
      5 N          59.6337   94.2021   -2.6474 N.am    1  UNL1       -0.2541
      6 C          58.2267   93.9443   -2.1959 C.3     1  UNL1        0.1577
      7 C          57.9252   93.7836   -0.7354 C.2     1  UNL1        0.2445
      8 O          56.5182   93.5258   -0.2839 O.2     1  UNL1       -0.2731
      9 N          59.0308   93.8806    0.2738 N.am    1  UNL1       -0.2705
     10 C          60.4378   94.1384   -0.1777 C.3     1  UNL1        0.1359
     11 C          60.7393   94.2991   -1.6383 C.3     1  UNL1        0.1908
     12 N          62.1463   94.5569   -2.0897 N.am    1  UNL1       -0.1863
     13 C          63.2519   94.6540   -1.0806 C.2     1  UNL1        0.3191
     14 O          62.9504   94.4932    0.3800 O.2     1  UNL1       -0.2512
     15 N          64.6589   94.9117   -1.5320 N.am    1  UNL1       -0.2836
     16 H          64.8568   95.0172   -2.4906 H       1  UNL1        0.1513
     17 C          63.8548   94.9754   -4.0017 C.3     1  UNL1        0.1188
     18 C          64.3552   94.4814   -6.5028 C.2     1  UNL1       -0.0034
     19 C          64.1177   95.4645   -5.3951 C.2     1  UNL1       -0.0071
     20 C          57.1212   93.8473   -3.2050 C.3     1  UNL1        0.0556
     21 C          56.4662   92.5251   -3.4752 C.ar    1  UNL1       -0.0198
     22 C          56.2641   91.5459   -2.3571 C.ar    1  UNL1       -0.0011
     23 C          55.6092   90.2237   -2.6272 C.ar    1  UNL1        0.0363
     24 C          55.1563   89.8809   -4.0155 C.ar    1  UNL1        0.1337
     25 O          54.5013   88.5587   -4.2856 O.3     1  UNL1       -0.5055
     26 C          55.3584   90.8602   -5.1337 C.ar    1  UNL1        0.0363
     27 C          56.0133   92.1823   -4.8635 C.ar    1  UNL1       -0.0011
     28 H          54.3751   87.9470   -3.5872 H       1  UNL1        0.2922
     29 C          58.7293   93.7199    1.7343 C.3     1  UNL1        0.1217
     30 C          59.6091   92.8588    2.5915 C.ar    1  UNL1        0.0135
     31 C          61.0813   92.7813    2.3150 C.ar    1  UNL1       -0.0012
     32 C          61.9611   91.9203    3.1720 C.ar    1  UNL1       -0.0002
     33 C          61.3686   91.1368    4.3056 C.ar    1  UNL1        0.0015
     34 C          59.8964   91.2143    4.5821 C.ar    1  UNL1        0.0170
     35 C          59.0345   90.5605    5.6212 C.ar    1  UNL1        0.0186
     36 C          57.6221   91.0175    5.4063 C.ar    1  UNL1        0.0759
     37 N          57.6110   91.9537    4.2345 N.ar    1  UNL1       -0.3242
     38 C          56.4060   92.6466    3.6709 C.3     1  UNL1        0.1305
     39 C          59.0166   92.0753    3.7250 C.ar    1  UNL1        0.0575
     40 C          59.5029   89.6156    6.6879 C.ar    1  UNL1        0.0016
     41 C          60.3705   90.1158    7.8047 C.ar    1  UNL1        0.0013
     42 C          60.8388   89.1709    8.8714 C.ar    1  UNL1        0.0147
     43 C          60.4395   87.7258    8.8213 C.ar    1  UNL1        0.0505
     44 C          59.5720   87.2257    7.7045 C.ar    1  UNL1        0.0147
     45 C          59.1036   88.1706    6.6379 C.ar    1  UNL1        0.0013
     46 N          60.9079   86.7810    9.8880 N.am    1  UNL1       -0.2804
     47 C          62.0989   85.9028    9.6420 C.2     1  UNL1        0.2495
     48 O          62.8215   85.9696    8.3293 O.2     1  UNL1       -0.2698
     49 H          60.4336   86.7372   10.7496 H       1  UNL1        0.1552
     50 C          62.5672   84.9580   10.7088 C.ar    1  UNL1        0.0538
     51 C          62.1328   85.1575   12.1306 C.ar    1  UNL1        0.0058
     52 C          62.6010   84.2127   13.1974 C.ar    1  UNL1        0.0147
     53 C          63.5036   83.0685   12.8424 C.ar    1  UNL1        0.0478
     54 C          63.9381   82.8691   11.4206 C.ar    1  UNL1        0.0147
     55 C          63.4698   83.8138   10.3538 C.ar    1  UNL1        0.0058
     56 N          63.9719   82.1237   13.9092 N.pl3   1  UNL1       -0.3075
     57 C          64.6408   82.6561   15.1417 C.3     1  UNL1        0.0908
     58 C          64.8211   84.1348   15.3180 C.3     1  UNL1        0.0232
     59 C          63.7714   80.6464   13.7435 C.3     1  UNL1        0.0908
     60 C          62.4395   80.1150   13.3032 C.3     1  UNL1        0.0232
     61 C          65.7645   95.0088   -0.5229 C.3     1  UNL1        0.1177
     62 C          65.4411   95.2307    0.9249 C.ar    1  UNL1       -0.0025
     63 C          65.1303   94.0616    1.8117 C.ar    1  UNL1       -0.0026
     64 C          64.8070   94.2836    3.2595 C.ar    1  UNL1       -0.0003
     65 C          64.7944   95.6747    3.8205 C.ar    1  UNL1       -0.0000
     66 C          65.1051   96.8439    2.9336 C.ar    1  UNL1       -0.0003
     67 C          65.4285   96.6219    1.4858 C.ar    1  UNL1       -0.0026
@<TRIPOS>BOND
     1    18    19    2
     2    19    17    1
     3    17     1    1
     4     1     2    1
     5     2     3    1
     6     3     4    2
     7     3     5   am
     8     5     6    1
     9     6    20    1
    10    20    21    1
    11    21    22   ar
    12    22    23   ar
    13    23    24   ar
    14    24    25    1
    15    24    26   ar
    16    26    27   ar
    17     6     7    1
    18     7     8    2
    19     7     9   am
    20     9    29    1
    21    29    30    1
    22    30    31   ar
    23    31    32   ar
    24    32    33   ar
    25    33    34   ar
    26    34    35   ar
    27    35    40    1
    28    40    41   ar
    29    41    42   ar
    30    42    43   ar
    31    43    46    1
    32    46    47   am
    33    47    48    2
    34    47    50    1
    35    50    51   ar
    36    51    52   ar
    37    52    53   ar
    38    53    56    1
    39    56    57    1
    40    57    58    1
    41    56    59    1
    42    59    60    1
    43    53    54   ar
    44    54    55   ar
    45    43    44   ar
    46    44    45   ar
    47    35    36   ar
    48    36    37   ar
    49    37    38    1
    50    37    39   ar
    51     9    10    1
    52    11    10    1
    53    11    12    1
    54    12    13   am
    55    13    14    2
    56    13    15   am
    57    15    61    1
    58    61    62    1
    59    62    63   ar
    60    63    64   ar
    61    64    65   ar
    62    65    66   ar
    63    66    67   ar
    64    12     1    1
    65    67    62   ar
    66    11     5    1
    67    27    21   ar
    68    39    30   ar
    69    39    34   ar
    70    45    40   ar
    71    55    50   ar
    72    25    28    1
    73    46    49    1
    74    15    16    1
