@<TRIPOS>MOLECULE
*****
 46 51 0 0 0
SMALL
GASTEIGER

@<TRIPOS>ATOM
      1 C          61.4257   86.5678    8.9934 C.3     1  UNL1        0.0821
      2 C          62.7302   85.8296    8.9381 C.3     1  UNL1        0.0194
      3 C          62.7324   84.9844    7.6989 C.3     1  UNL1        0.0188
      4 C          61.4292   85.2003    6.9882 C.3     1  UNL1        0.0722
      5 N          60.6216   86.1789    7.7883 N.3     1  UNL1       -0.2721
      6 C          61.0000   87.5266   10.0655 C.3     1  UNL1        0.1465
      7 O          61.8530   90.3794   10.4316 O.2     1  UNL1       -0.2655
      8 C          62.3770   89.3161   11.3506 C.ar    1  UNL1        0.2763
      9 C          63.3276   89.6791   12.4527 C.ar    1  UNL1        0.0588
     10 C          63.7541   91.1055   12.6358 C.ar    1  UNL1        0.0048
     11 C          64.7046   91.4685   13.7379 C.ar    1  UNL1        0.0002
     12 C          65.2286   90.4052   14.6570 C.ar    1  UNL1        0.0000
     13 C          64.8021   88.9788   14.4739 C.ar    1  UNL1        0.0014
     14 C          63.8516   88.6157   13.3718 C.ar    1  UNL1        0.0202
     15 C          63.4251   87.1894   13.1888 C.ar    1  UNL1        0.0832
     16 N          62.4745   86.8263   12.0866 N.ar    1  UNL1       -0.1708
     17 N          61.9505   87.8896   11.1676 N.ar    1  UNL1       -0.2156
     18 C          63.9491   86.1261   14.1078 C.3     1  UNL1        0.0738
     19 C          63.5907   84.6885   13.8731 C.ar    1  UNL1       -0.0161
     20 C          64.2242   83.9324   12.7431 C.ar    1  UNL1       -0.0030
     21 C          63.8658   82.4949   12.5085 C.ar    1  UNL1        0.0111
     22 C          62.8737   81.8135   13.4038 C.ar    1  UNL1        0.0577
     23 CL         62.5153   80.3760   13.1691 Cl      1  UNL1       -0.0822
     24 C          62.2402   82.5696   14.5338 C.ar    1  UNL1        0.0111
     25 C          62.5987   84.0071   14.7684 C.ar    1  UNL1       -0.0030
     26 C          59.2506   86.6805    7.4437 C.3     1  UNL1        0.0721
     27 C          58.9307   88.1400    7.5763 C.3     1  UNL1        0.0177
     28 C          59.6798   89.1494    6.7578 C.3     1  UNL1        0.0061
     29 C          58.9306   90.2008    5.9941 C.3     1  UNL1        0.0264
     30 C          59.6432   91.0362    4.9722 C.ar    1  UNL1       -0.0220
     31 C          61.1140   90.8500    4.7446 C.ar    1  UNL1       -0.0012
     32 C          61.8266   91.6854    3.7227 C.ar    1  UNL1        0.0366
     33 C          61.0683   92.7071    2.9283 C.ar    1  UNL1        0.1385
     34 C          59.5974   92.8933    3.1558 C.ar    1  UNL1        0.0366
     35 C          58.8849   92.0579    4.1778 C.ar    1  UNL1       -0.0012
     36 O          61.7808   93.5425    1.9063 O.3     1  UNL1       -0.4754
     37 C          62.0339   92.9938    0.5334 C.3     1  UNL1        0.2068
     38 C          60.9443   93.0193   -0.4971 C.3     1  UNL1        0.0646
     39 C          60.0928   94.2437   -0.6582 C.3     1  UNL1        0.0759
     40 N          58.6469   94.1077   -1.0334 N.3     1  UNL1       -0.2726
     41 C          57.8561   95.3821   -1.0493 C.3     1  UNL1        0.0721
     42 C          56.4059   95.5789   -1.3788 C.3     1  UNL1        0.0173
     43 C          55.3886   94.5498   -1.7738 C.3     1  UNL1        0.0015
     44 C          55.5701   93.0698   -1.9368 C.3     1  UNL1        0.0015
     45 C          56.8137   92.2533   -1.7451 C.3     1  UNL1        0.0173
     46 C          58.1830   92.7151   -1.3431 C.3     1  UNL1        0.0721
@<TRIPOS>BOND
     1     7     8    2
     2     8     9   ar
     3     9    10   ar
     4    10    11   ar
     5    11    12   ar
     6    12    13   ar
     7    13    14   ar
     8    14    15   ar
     9    15    18    1
    10    18    19    1
    11    19    20   ar
    12    20    21   ar
    13    21    22   ar
    14    22    23    1
    15    22    24   ar
    16    24    25   ar
    17    15    16   ar
    18    16    17   ar
    19    17     6    1
    20     1     6    1
    21     1     2    1
    22     2     3    1
    23     3     4    1
    24     4     5    1
    25     5    26    1
    26    26    27    1
    27    27    28    1
    28    28    29    1
    29    29    30    1
    30    30    31   ar
    31    31    32   ar
    32    32    33   ar
    33    33    36    1
    34    36    37    1
    35    37    38    1
    36    38    39    1
    37    39    40    1
    38    40    41    1
    39    41    42    1
    40    42    43    1
    41    43    44    1
    42    44    45    1
    43    45    46    1
    44    33    34   ar
    45    34    35   ar
    46    17     8   ar
    47     5     1    1
    48    35    30   ar
    49    14     9   ar
    50    25    19   ar
    51    46    40    1
@<TRIPOS>MOLECULE
*****
 46 51 0 0 0
SMALL
GASTEIGER

@<TRIPOS>ATOM
      1 C          61.9508   89.0178   10.4056 C.3     1  UNL1        0.0821
      2 C          62.4183   87.8079   11.1589 C.3     1  UNL1        0.0194
      3 C          61.6448   86.6236   10.6599 C.3     1  UNL1        0.0188
      4 C          60.6991   87.1016    9.5980 C.3     1  UNL1        0.0722
      5 N          60.8883   88.5813    9.4409 N.3     1  UNL1       -0.2721
      6 C          62.4568   90.4183   10.5853 C.3     1  UNL1        0.1465
      7 O          64.6077   92.5006   10.3903 O.2     1  UNL1       -0.2655
      8 C          64.3451   91.8138   11.6977 C.ar    1  UNL1        0.2763
      9 C          65.1579   92.1681   12.9076 C.ar    1  UNL1        0.0588
     10 C          66.2333   93.2092   12.8101 C.ar    1  UNL1        0.0048
     11 C          67.0461   93.5635   14.0200 C.ar    1  UNL1        0.0002
     12 C          66.7835   92.8766   15.3274 C.ar    1  UNL1        0.0000
     13 C          65.7080   91.8355   15.4249 C.ar    1  UNL1        0.0014
     14 C          64.8952   91.4812   14.2150 C.ar    1  UNL1        0.0202
     15 C          63.8198   90.4401   14.3125 C.ar    1  UNL1        0.0832
     16 N          63.0070   90.0858   13.1026 N.ar    1  UNL1       -0.1708
     17 N          63.2696   90.7726   11.7952 N.ar    1  UNL1       -0.2156
     18 C          63.5572   89.7532   15.6198 C.3     1  UNL1        0.0738
     19 C          63.6312   88.2577   15.7095 C.ar    1  UNL1       -0.0161
     20 C          64.3462   87.4771   14.6468 C.ar    1  UNL1       -0.0030
     21 C          64.4201   85.9816   14.7366 C.ar    1  UNL1        0.0111
     22 C          63.7791   85.2668   15.8890 C.ar    1  UNL1        0.0577
     23 CL         63.8531   83.7712   15.9787 Cl      1  UNL1       -0.0822
     24 C          63.0641   86.0474   16.9517 C.ar    1  UNL1        0.0111
     25 C          62.9902   87.5429   16.8620 C.ar    1  UNL1       -0.0030
     26 C          60.1453   89.4686    8.4866 C.3     1  UNL1        0.0721
     27 C          59.2755   88.8653    7.4238 C.3     1  UNL1        0.0177
     28 C          59.3406   89.3835    6.0178 C.3     1  UNL1        0.0061
     29 C          59.2150   90.8548    5.7541 C.3     1  UNL1        0.0264
     30 C          59.9838   91.4836    4.6300 C.ar    1  UNL1       -0.0220
     31 C          59.3076   92.4579    3.7116 C.ar    1  UNL1       -0.0012
     32 C          60.0763   93.0867    2.5876 C.ar    1  UNL1        0.0366
     33 C          61.5215   92.7412    2.3819 C.ar    1  UNL1        0.1385
     34 C          62.1977   91.7670    3.3002 C.ar    1  UNL1        0.0366
     35 C          61.4289   91.1382    4.4243 C.ar    1  UNL1       -0.0012
     36 O          62.2903   93.3700    1.2578 O.3     1  UNL1       -0.4754
     37 C          61.5952   94.2846    0.2932 C.3     1  UNL1        0.2068
     38 C          61.4184   93.8712   -1.1378 C.3     1  UNL1        0.0646
     39 C          60.3322   94.4881   -1.9681 C.3     1  UNL1        0.0759
     40 N          59.0900   93.7068   -2.2785 N.3     1  UNL1       -0.2726
     41 C          58.8190   93.4666   -3.7341 C.3     1  UNL1        0.0721
     42 C          57.6740   92.7293   -4.3630 C.3     1  UNL1        0.0173
     43 C          56.5173   92.0501   -3.6917 C.3     1  UNL1        0.0015
     44 C          56.2199   91.9405   -2.2256 C.3     1  UNL1        0.0015
     45 C          57.0057   92.4829   -1.0687 C.3     1  UNL1        0.0173
     46 C          58.2829   93.2690   -1.0922 C.3     1  UNL1        0.0721
@<TRIPOS>BOND
     1     7     8    2
     2     8     9   ar
     3     9    10   ar
     4    10    11   ar
     5    11    12   ar
     6    12    13   ar
     7    13    14   ar
     8    14    15   ar
     9    15    18    1
    10    18    19    1
    11    19    20   ar
    12    20    21   ar
    13    21    22   ar
    14    22    23    1
    15    22    24   ar
    16    24    25   ar
    17    15    16   ar
    18    16    17   ar
    19    17     6    1
    20     1     6    1
    21     1     2    1
    22     2     3    1
    23     3     4    1
    24     4     5    1
    25     5    26    1
    26    26    27    1
    27    27    28    1
    28    28    29    1
    29    29    30    1
    30    30    31   ar
    31    31    32   ar
    32    32    33   ar
    33    33    36    1
    34    36    37    1
    35    37    38    1
    36    38    39    1
    37    39    40    1
    38    40    41    1
    39    41    42    1
    40    42    43    1
    41    43    44    1
    42    44    45    1
    43    45    46    1
    44    33    34   ar
    45    34    35   ar
    46    17     8   ar
    47     5     1    1
    48    35    30   ar
    49    14     9   ar
    50    25    19   ar
    51    46    40    1
@<TRIPOS>MOLECULE
*****
 46 51 0 0 0
SMALL
GASTEIGER

@<TRIPOS>ATOM
      1 C          61.7488   86.0831    9.4404 C.3     1  UNL1        0.0821
      2 C          61.6794   85.5041    8.0584 C.3     1  UNL1        0.0194
      3 C          60.4117   85.9856    7.4172 C.3     1  UNL1        0.0188
      4 C          59.6976   86.8623    8.4030 C.3     1  UNL1        0.0722
      5 N          60.5240   86.9225    9.6533 N.3     1  UNL1       -0.2721
      6 C          62.8497   85.8615   10.4348 C.3     1  UNL1        0.1465
      7 O          62.9328   83.0737    9.3298 O.2     1  UNL1       -0.2655
      8 C          62.8375   83.2908   10.8109 C.ar    1  UNL1        0.2763
      9 C          62.7838   82.1141   11.7395 C.ar    1  UNL1        0.0588
     10 C          62.8254   80.7202   11.1870 C.ar    1  UNL1        0.0048
     11 C          62.7717   79.5434   12.1157 C.ar    1  UNL1        0.0002
     12 C          62.6764   79.7606   13.5968 C.ar    1  UNL1        0.0000
     13 C          62.6349   81.1545   14.1493 C.ar    1  UNL1        0.0014
     14 C          62.6886   82.3313   13.2207 C.ar    1  UNL1        0.0202
     15 C          62.6470   83.7252   13.7732 C.ar    1  UNL1        0.0832
     16 N          62.7007   84.9019   12.8446 N.ar    1  UNL1       -0.1708
     17 N          62.7960   84.6848   11.3634 N.ar    1  UNL1       -0.2156
     18 C          62.5518   83.9423   15.2543 C.3     1  UNL1        0.0738
     19 C          62.7566   85.3139   15.8260 C.ar    1  UNL1       -0.0161
     20 C          61.8722   85.8046   16.9337 C.ar    1  UNL1       -0.0030
     21 C          62.0771   87.1761   17.5053 C.ar    1  UNL1        0.0111
     22 C          63.1664   88.0571   16.9692 C.ar    1  UNL1        0.0577
     23 CL         63.3712   89.4287   17.5409 Cl      1  UNL1       -0.0822
     24 C          64.0508   87.5664   15.8615 C.ar    1  UNL1        0.0111
     25 C          63.8459   86.1949   15.2899 C.ar    1  UNL1       -0.0030
     26 C          60.1851   87.6878   10.8981 C.3     1  UNL1        0.0721
     27 C          59.7651   89.1247   10.8041 C.3     1  UNL1        0.0177
     28 C          60.6114   90.1056   10.0482 C.3     1  UNL1        0.0061
     29 C          62.0998   89.9267    9.9941 C.3     1  UNL1        0.0264
     30 C          62.9246   90.1257   11.2310 C.ar    1  UNL1       -0.0220
     31 C          63.1182   88.9919   12.1938 C.ar    1  UNL1       -0.0012
     32 C          63.9430   89.1909   13.4308 C.ar    1  UNL1        0.0366
     33 C          64.5742   90.5237   13.7050 C.ar    1  UNL1        0.1385
     34 C          64.3806   91.6574   12.7422 C.ar    1  UNL1        0.0366
     35 C          63.5558   91.4585   11.5052 C.ar    1  UNL1       -0.0012
     36 O          65.3990   90.7226   14.9420 O.3     1  UNL1       -0.4754
     37 C          65.4311   92.0630   15.6144 C.3     1  UNL1        0.2068
     38 C          66.7386   92.6470   16.0609 C.3     1  UNL1        0.0646
     39 C          67.5468   93.4862   15.1162 C.3     1  UNL1        0.0759
     40 N          67.3545   93.3450   13.6353 N.3     1  UNL1       -0.2726
     41 C          66.5308   94.4143   12.9811 C.3     1  UNL1        0.0721
     42 C          66.1604   94.5559   11.5344 C.3     1  UNL1        0.0173
     43 C          66.5224   93.6631   10.3847 C.3     1  UNL1        0.0015
     44 C          67.3441   92.4083   10.3976 C.3     1  UNL1        0.0015
     45 C          68.0068   91.7363   11.5635 C.3     1  UNL1        0.0173
     46 C          68.0115   92.1531   13.0044 C.3     1  UNL1        0.0721
@<TRIPOS>BOND
     1     7     8    2
     2     8     9   ar
     3     9    10   ar
     4    10    11   ar
     5    11    12   ar
     6    12    13   ar
     7    13    14   ar
     8    14    15   ar
     9    15    18    1
    10    18    19    1
    11    19    20   ar
    12    20    21   ar
    13    21    22   ar
    14    22    23    1
    15    22    24   ar
    16    24    25   ar
    17    15    16   ar
    18    16    17   ar
    19    17     6    1
    20     1     6    1
    21     1     2    1
    22     2     3    1
    23     3     4    1
    24     4     5    1
    25     5    26    1
    26    26    27    1
    27    27    28    1
    28    28    29    1
    29    29    30    1
    30    30    31   ar
    31    31    32   ar
    32    32    33   ar
    33    33    36    1
    34    36    37    1
    35    37    38    1
    36    38    39    1
    37    39    40    1
    38    40    41    1
    39    41    42    1
    40    42    43    1
    41    43    44    1
    42    44    45    1
    43    45    46    1
    44    33    34   ar
    45    34    35   ar
    46    17     8   ar
    47     5     1    1
    48    35    30   ar
    49    14     9   ar
    50    25    19   ar
    51    46    40    1
@<TRIPOS>MOLECULE
*****
 46 51 0 0 0
SMALL
GASTEIGER

@<TRIPOS>ATOM
      1 C          63.7362   84.9636   14.9449 C.3     1  UNL1        0.0821
      2 C          62.5715   84.6880   15.8491 C.3     1  UNL1        0.0194
      3 C          61.9785   83.3687   15.4521 C.3     1  UNL1        0.0188
      4 C          62.7767   82.8288   14.3025 C.3     1  UNL1        0.0722
      5 N          63.8630   83.8146   13.9890 N.3     1  UNL1       -0.2721
      6 C          64.6190   86.1755   14.9889 C.3     1  UNL1        0.1465
      7 O          63.2421   85.9957   12.3296 O.2     1  UNL1       -0.2655
      8 C          63.5229   87.3369   12.9395 C.ar    1  UNL1        0.2763
      9 C          63.1153   88.5883   12.2199 C.ar    1  UNL1        0.0588
     10 C          62.4269   88.4984   10.8903 C.ar    1  UNL1        0.0048
     11 C          62.0193   89.7498   10.1706 C.ar    1  UNL1        0.0002
     12 C          62.3001   91.0911   10.7806 C.ar    1  UNL1        0.0000
     13 C          62.9885   91.1810   12.1103 C.ar    1  UNL1        0.0014
     14 C          63.3962   89.9296   12.8299 C.ar    1  UNL1        0.0202
     15 C          64.0846   90.0195   14.1595 C.ar    1  UNL1        0.0832
     16 N          64.4922   88.7681   14.8792 N.ar    1  UNL1       -0.1708
     17 N          64.2114   87.4269   14.2692 N.ar    1  UNL1       -0.2156
     18 C          64.3654   91.3608   14.7695 C.3     1  UNL1        0.0738
     19 C          65.7783   91.8514   14.8847 C.ar    1  UNL1       -0.0161
     20 C          66.2035   92.6369   16.0897 C.ar    1  UNL1       -0.0030
     21 C          67.6163   93.1275   16.2049 C.ar    1  UNL1        0.0111
     22 C          68.6039   92.8324   15.1151 C.ar    1  UNL1        0.0577
     23 CL         70.0168   93.3230   15.2303 Cl      1  UNL1       -0.0822
     24 C          68.1787   92.0468   13.9101 C.ar    1  UNL1        0.0111
     25 C          66.7659   91.5563   13.7949 C.ar    1  UNL1       -0.0030
     26 C          64.8949   83.6757   12.9093 C.3     1  UNL1        0.0721
     27 C          64.6420   82.7675   11.7426 C.3     1  UNL1        0.0177
     28 C          63.5400   83.0796   10.7741 C.3     1  UNL1        0.0061
     29 C          63.7731   84.0601    9.6631 C.3     1  UNL1        0.0264
     30 C          62.6133   84.7832    9.0452 C.ar    1  UNL1       -0.0220
     31 C          62.4314   84.7751    7.5564 C.ar    1  UNL1       -0.0012
     32 C          61.2715   85.4982    6.9385 C.ar    1  UNL1        0.0366
     33 C          60.2934   86.2294    7.8096 C.ar    1  UNL1        0.1385
     34 C          60.4753   86.2375    9.2984 C.ar    1  UNL1        0.0366
     35 C          61.6352   85.5144    9.9163 C.ar    1  UNL1       -0.0012
     36 O          59.1335   86.9525    7.1917 O.3     1  UNL1       -0.4754
     37 C          58.9570   88.4238    7.4242 C.3     1  UNL1        0.2068
     38 C          59.7986   89.4089    6.6683 C.3     1  UNL1        0.0646
     39 C          59.1442   90.4701    5.8344 C.3     1  UNL1        0.0759
     40 N          59.9293   91.1783    4.7704 N.3     1  UNL1       -0.2726
     41 C          61.3715   90.7830    4.6540 C.3     1  UNL1        0.0721
     42 C          62.4091   91.2999    3.7020 C.3     1  UNL1        0.0173
     43 C          62.2606   92.3398    2.6312 C.3     1  UNL1        0.0015
     44 C          61.0379   93.1196    2.2480 C.3     1  UNL1        0.0015
     45 C          59.6617   93.0521    2.8409 C.3     1  UNL1        0.0173
     46 C          59.1683   92.1882    3.9635 C.3     1  UNL1        0.0721
@<TRIPOS>BOND
     1     7     8    2
     2     8     9   ar
     3     9    10   ar
     4    10    11   ar
     5    11    12   ar
     6    12    13   ar
     7    13    14   ar
     8    14    15   ar
     9    15    18    1
    10    18    19    1
    11    19    20   ar
    12    20    21   ar
    13    21    22   ar
    14    22    23    1
    15    22    24   ar
    16    24    25   ar
    17    15    16   ar
    18    16    17   ar
    19    17     6    1
    20     1     6    1
    21     1     2    1
    22     2     3    1
    23     3     4    1
    24     4     5    1
    25     5    26    1
    26    26    27    1
    27    27    28    1
    28    28    29    1
    29    29    30    1
    30    30    31   ar
    31    31    32   ar
    32    32    33   ar
    33    33    36    1
    34    36    37    1
    35    37    38    1
    36    38    39    1
    37    39    40    1
    38    40    41    1
    39    41    42    1
    40    42    43    1
    41    43    44    1
    42    44    45    1
    43    45    46    1
    44    33    34   ar
    45    34    35   ar
    46    17     8   ar
    47     5     1    1
    48    35    30   ar
    49    14     9   ar
    50    25    19   ar
    51    46    40    1
@<TRIPOS>MOLECULE
*****
 46 51 0 0 0
SMALL
GASTEIGER

@<TRIPOS>ATOM
      1 C          61.9754   88.2395   10.5980 C.3     1  UNL1        0.0821
      2 C          62.7713   89.3569   11.2047 C.3     1  UNL1        0.0194
      3 C          61.8426   90.5100   11.4452 C.3     1  UNL1        0.0188
      4 C          60.4727   90.1054   10.9871 C.3     1  UNL1        0.0722
      5 N          60.5548   88.7021   10.4635 N.3     1  UNL1       -0.2721
      6 C          62.5068   86.8956   10.1963 C.3     1  UNL1        0.1465
      7 O          62.3049   83.9801    9.5185 O.2     1  UNL1       -0.2655
      8 C          62.6960   84.4028   10.9035 C.ar    1  UNL1        0.2763
      9 C          62.9862   83.3677   11.9497 C.ar    1  UNL1        0.0588
     10 C          62.8853   81.9100   11.6108 C.ar    1  UNL1        0.0048
     11 C          63.1755   80.8750   12.6570 C.ar    1  UNL1        0.0002
     12 C          63.5666   81.2976   14.0420 C.ar    1  UNL1        0.0000
     13 C          63.6675   82.7554   14.3809 C.ar    1  UNL1        0.0014
     14 C          63.3773   83.7904   13.3348 C.ar    1  UNL1        0.0202
     15 C          63.4782   85.2481   13.6736 C.ar    1  UNL1        0.0832
     16 N          63.1881   86.2832   12.6275 N.ar    1  UNL1       -0.1708
     17 N          62.7970   85.8605   11.2424 N.ar    1  UNL1       -0.2156
     18 C          63.8693   85.6708   15.0587 C.3     1  UNL1        0.0738
     19 C          63.8185   87.1198   15.4431 C.ar    1  UNL1       -0.0161
     20 C          63.1581   87.5330   16.7249 C.ar    1  UNL1       -0.0030
     21 C          63.1073   88.9820   17.1093 C.ar    1  UNL1        0.0111
     22 C          63.7168   90.0178   16.2119 C.ar    1  UNL1        0.0577
     23 CL         63.6660   91.4669   16.5963 Cl      1  UNL1       -0.0822
     24 C          64.3772   89.6047   14.9301 C.ar    1  UNL1        0.0111
     25 C          64.4281   88.1557   14.5457 C.ar    1  UNL1       -0.0030
     26 C          59.4163   87.9020    9.9037 C.3     1  UNL1        0.0721
     27 C          59.5632   87.2137    8.5791 C.3     1  UNL1        0.0177
     28 C          59.6903   88.0235    7.3230 C.3     1  UNL1        0.0061
     29 C          58.6231   89.0120    6.9567 C.3     1  UNL1        0.0264
     30 C          58.9230   90.1131    5.9832 C.ar    1  UNL1       -0.0220
     31 C          57.8080   90.9521    5.4330 C.ar    1  UNL1       -0.0012
     32 C          58.1079   92.0532    4.4596 C.ar    1  UNL1        0.0366
     33 C          59.5229   92.3153    4.0362 C.ar    1  UNL1        0.1385
     34 C          60.6379   91.4762    4.5864 C.ar    1  UNL1        0.0366
     35 C          60.3380   90.3752    5.5598 C.ar    1  UNL1       -0.0012
     36 O          59.8227   93.4164    3.0627 O.3     1  UNL1       -0.4754
     37 C          60.9492   93.2657    2.0837 C.3     1  UNL1        0.2068
     38 C          60.6548   93.0753    0.6253 C.3     1  UNL1        0.0646
     39 C          60.0714   94.2015   -0.1755 C.3     1  UNL1        0.0759
     40 N          58.6705   94.1003   -0.7021 N.3     1  UNL1       -0.2726
     41 C          57.9478   95.4021   -0.8832 C.3     1  UNL1        0.0721
     42 C          56.5536   95.6360   -1.3850 C.3     1  UNL1        0.0173
     43 C          55.5379   94.6256   -1.8295 C.3     1  UNL1        0.0015
     44 C          55.6655   93.1320   -1.8820 C.3     1  UNL1        0.0015
     45 C          56.8403   92.2798   -1.5031 C.3     1  UNL1        0.0173
     46 C          58.1776   92.7106   -0.9779 C.3     1  UNL1        0.0721
@<TRIPOS>BOND
     1     7     8    2
     2     8     9   ar
     3     9    10   ar
     4    10    11   ar
     5    11    12   ar
     6    12    13   ar
     7    13    14   ar
     8    14    15   ar
     9    15    18    1
    10    18    19    1
    11    19    20   ar
    12    20    21   ar
    13    21    22   ar
    14    22    23    1
    15    22    24   ar
    16    24    25   ar
    17    15    16   ar
    18    16    17   ar
    19    17     6    1
    20     1     6    1
    21     1     2    1
    22     2     3    1
    23     3     4    1
    24     4     5    1
    25     5    26    1
    26    26    27    1
    27    27    28    1
    28    28    29    1
    29    29    30    1
    30    30    31   ar
    31    31    32   ar
    32    32    33   ar
    33    33    36    1
    34    36    37    1
    35    37    38    1
    36    38    39    1
    37    39    40    1
    38    40    41    1
    39    41    42    1
    40    42    43    1
    41    43    44    1
    42    44    45    1
    43    45    46    1
    44    33    34   ar
    45    34    35   ar
    46    17     8   ar
    47     5     1    1
    48    35    30   ar
    49    14     9   ar
    50    25    19   ar
    51    46    40    1
@<TRIPOS>MOLECULE
*****
 46 51 0 0 0
SMALL
GASTEIGER

@<TRIPOS>ATOM
      1 C          61.8443   88.2411   10.4279 C.3     1  UNL1        0.0821
      2 C          62.5007   89.4290   11.0666 C.3     1  UNL1        0.0194
      3 C          61.4492   90.4751   11.2903 C.3     1  UNL1        0.0188
      4 C          60.1429   89.9337   10.7897 C.3     1  UNL1        0.0722
      5 N          60.3871   88.5531   10.2567 N.3     1  UNL1       -0.2721
      6 C          62.5255   86.9654   10.0301 C.3     1  UNL1        0.1465
      7 O          62.3215   84.0600    9.3106 O.2     1  UNL1       -0.2655
      8 C          62.7107   84.4625   10.7022 C.ar    1  UNL1        0.2763
      9 C          62.9979   83.4124   11.7340 C.ar    1  UNL1        0.0588
     10 C          62.8958   81.9597   11.3743 C.ar    1  UNL1        0.0048
     11 C          63.1830   80.9096   12.4061 C.ar    1  UNL1        0.0002
     12 C          63.5722   81.3120   13.7977 C.ar    1  UNL1        0.0000
     13 C          63.6743   82.7647   14.1575 C.ar    1  UNL1        0.0014
     14 C          63.3871   83.8149   13.1257 C.ar    1  UNL1        0.0202
     15 C          63.4891   85.2675   13.4854 C.ar    1  UNL1        0.0832
     16 N          63.2019   86.3177   12.4535 N.ar    1  UNL1       -0.1708
     17 N          62.8127   85.9152   11.0620 N.ar    1  UNL1       -0.2156
     18 C          63.8783   85.6700   14.8769 C.3     1  UNL1        0.0738
     19 C          63.8178   87.1121   15.2852 C.ar    1  UNL1       -0.0161
     20 C          64.3868   88.1703   14.3873 C.ar    1  UNL1       -0.0030
     21 C          64.3263   89.6124   14.7956 C.ar    1  UNL1        0.0111
     22 C          63.6968   89.9962   16.1019 C.ar    1  UNL1        0.0577
     23 CL         63.6363   91.4384   16.5101 Cl      1  UNL1       -0.0822
     24 C          63.1278   88.9380   16.9998 C.ar    1  UNL1        0.0111
     25 C          63.1883   87.4960   16.5915 C.ar    1  UNL1       -0.0030
     26 C          59.3553   87.6439    9.6578 C.3     1  UNL1        0.0721
     27 C          59.5018   87.1736    8.2410 C.3     1  UNL1        0.0177
     28 C          59.7492   88.1653    7.1432 C.3     1  UNL1        0.0061
     29 C          58.9000   89.3974    7.0401 C.3     1  UNL1        0.0264
     30 C          59.1168   90.3657    5.9152 C.ar    1  UNL1       -0.0220
     31 C          60.5055   90.6414    5.4199 C.ar    1  UNL1       -0.0012
     32 C          60.7223   91.6096    4.2950 C.ar    1  UNL1        0.0366
     33 C          59.5502   92.3023    3.6653 C.ar    1  UNL1        0.1385
     34 C          58.1615   92.0266    4.1605 C.ar    1  UNL1        0.0366
     35 C          57.9447   91.0583    5.2854 C.ar    1  UNL1       -0.0012
     36 O          59.7670   93.2705    2.5403 O.3     1  UNL1       -0.4754
     37 C          59.0918   93.0488    1.2194 C.3     1  UNL1        0.2068
     38 C          59.9136   92.8014   -0.0108 C.3     1  UNL1        0.0646
     39 C          61.3129   92.2759    0.1152 C.3     1  UNL1        0.0759
     40 N          62.4619   93.2292    0.2602 N.3     1  UNL1       -0.2726
     41 C          63.1222   93.2524    1.6067 C.3     1  UNL1        0.0721
     42 C          64.2825   94.0854    2.0652 C.3     1  UNL1        0.0173
     43 C          65.0688   95.1008    1.2902 C.3     1  UNL1        0.0015
     44 C          64.8891   95.5341   -0.1345 C.3     1  UNL1        0.0015
     45 C          63.8788   95.0590   -1.1362 C.3     1  UNL1        0.0173
     46 C          62.7985   94.0332   -0.9607 C.3     1  UNL1        0.0721
@<TRIPOS>BOND
     1     7     8    2
     2     8     9   ar
     3     9    10   ar
     4    10    11   ar
     5    11    12   ar
     6    12    13   ar
     7    13    14   ar
     8    14    15   ar
     9    15    18    1
    10    18    19    1
    11    19    20   ar
    12    20    21   ar
    13    21    22   ar
    14    22    23    1
    15    22    24   ar
    16    24    25   ar
    17    15    16   ar
    18    16    17   ar
    19    17     6    1
    20     1     6    1
    21     1     2    1
    22     2     3    1
    23     3     4    1
    24     4     5    1
    25     5    26    1
    26    26    27    1
    27    27    28    1
    28    28    29    1
    29    29    30    1
    30    30    31   ar
    31    31    32   ar
    32    32    33   ar
    33    33    36    1
    34    36    37    1
    35    37    38    1
    36    38    39    1
    37    39    40    1
    38    40    41    1
    39    41    42    1
    40    42    43    1
    41    43    44    1
    42    44    45    1
    43    45    46    1
    44    33    34   ar
    45    34    35   ar
    46    17     8   ar
    47     5     1    1
    48    35    30   ar
    49    14     9   ar
    50    25    19   ar
    51    46    40    1
@<TRIPOS>MOLECULE
*****
 46 51 0 0 0
SMALL
GASTEIGER

@<TRIPOS>ATOM
      1 C          61.8821   86.5748    8.9929 C.3     1  UNL1        0.0821
      2 C          63.0952   85.8294    8.5210 C.3     1  UNL1        0.0194
      3 C          62.6913   84.9782    7.3538 C.3     1  UNL1        0.0188
      4 C          61.2285   85.1976    7.1043 C.3     1  UNL1        0.0722
      5 N          60.7284   86.1843    8.1173 N.3     1  UNL1       -0.2721
      6 C          61.8316   87.5411   10.1390 C.3     1  UNL1        0.1465
      7 O          62.0868   84.6797   11.0035 O.2     1  UNL1       -0.2655
      8 C          62.6405   85.7757   11.8650 C.ar    1  UNL1        0.2763
      9 C          63.3218   85.4410   13.1588 C.ar    1  UNL1        0.0588
     10 C          63.4494   84.0103   13.5910 C.ar    1  UNL1        0.0048
     11 C          64.1308   83.6756   14.8848 C.ar    1  UNL1        0.0002
     12 C          64.6845   84.7716   15.7463 C.ar    1  UNL1        0.0000
     13 C          64.5568   86.2024   15.3140 C.ar    1  UNL1        0.0014
     14 C          63.8755   86.5371   14.0203 C.ar    1  UNL1        0.0202
     15 C          63.7479   87.9677   13.5880 C.ar    1  UNL1        0.0832
     16 N          63.0666   88.3024   12.2943 N.ar    1  UNL1       -0.1708
     17 N          62.5129   87.2064   11.4328 N.ar    1  UNL1       -0.2156
     18 C          64.3016   89.0637   14.4495 C.3     1  UNL1        0.0738
     19 C          64.7959   90.3335   13.8223 C.ar    1  UNL1       -0.0161
     20 C          65.9855   91.0416   14.3997 C.ar    1  UNL1       -0.0030
     21 C          66.4797   92.3113   13.7725 C.ar    1  UNL1        0.0111
     22 C          65.7844   92.8730   12.5679 C.ar    1  UNL1        0.0577
     23 CL         66.2787   94.1428   11.9407 Cl      1  UNL1       -0.0822
     24 C          64.5949   92.1648   11.9905 C.ar    1  UNL1        0.0111
     25 C          64.1006   90.8951   12.6177 C.ar    1  UNL1       -0.0030
     26 C          59.3217   86.6916    8.2342 C.3     1  UNL1        0.0721
     27 C          58.7973   87.6845    7.2396 C.3     1  UNL1        0.0177
     28 C          59.5235   88.9778    7.0167 C.3     1  UNL1        0.0061
     29 C          58.8019   90.1501    6.4207 C.3     1  UNL1        0.0264
     30 C          59.4422   90.9450    5.3216 C.ar    1  UNL1       -0.0220
     31 C          58.6237   91.9164    4.5238 C.ar    1  UNL1       -0.0012
     32 C          59.2639   92.7113    3.4246 C.ar    1  UNL1        0.0366
     33 C          60.7227   92.5348    3.1232 C.ar    1  UNL1        0.1385
     34 C          61.5412   91.5635    3.9209 C.ar    1  UNL1        0.0366
     35 C          60.9009   90.7685    5.0201 C.ar    1  UNL1       -0.0012
     36 O          61.3629   93.3297    2.0240 O.3     1  UNL1       -0.4754
     37 C          60.6889   94.5630    1.4999 C.3     1  UNL1        0.2068
     38 C          59.7850   94.4739    0.3061 C.3     1  UNL1        0.0646
     39 C          59.1838   93.1559   -0.0827 C.3     1  UNL1        0.0759
     40 N          58.4532   93.0199   -1.3856 N.3     1  UNL1       -0.2726
     41 C          57.0981   92.3816   -1.3084 C.3     1  UNL1        0.0721
     42 C          56.1293   92.1060   -2.4200 C.3     1  UNL1        0.0173
     43 C          56.2765   92.4006   -3.8834 C.3     1  UNL1        0.0015
     44 C          57.4288   93.0436   -4.5966 C.3     1  UNL1        0.0015
     45 C          58.7185   93.5508   -4.0226 C.3     1  UNL1        0.0173
     46 C          59.1745   93.5403   -2.5937 C.3     1  UNL1        0.0721
@<TRIPOS>BOND
     1     7     8    2
     2     8     9   ar
     3     9    10   ar
     4    10    11   ar
     5    11    12   ar
     6    12    13   ar
     7    13    14   ar
     8    14    15   ar
     9    15    18    1
    10    18    19    1
    11    19    20   ar
    12    20    21   ar
    13    21    22   ar
    14    22    23    1
    15    22    24   ar
    16    24    25   ar
    17    15    16   ar
    18    16    17   ar
    19    17     6    1
    20     1     6    1
    21     1     2    1
    22     2     3    1
    23     3     4    1
    24     4     5    1
    25     5    26    1
    26    26    27    1
    27    27    28    1
    28    28    29    1
    29    29    30    1
    30    30    31   ar
    31    31    32   ar
    32    32    33   ar
    33    33    36    1
    34    36    37    1
    35    37    38    1
    36    38    39    1
    37    39    40    1
    38    40    41    1
    39    41    42    1
    40    42    43    1
    41    43    44    1
    42    44    45    1
    43    45    46    1
    44    33    34   ar
    45    34    35   ar
    46    17     8   ar
    47     5     1    1
    48    35    30   ar
    49    14     9   ar
    50    25    19   ar
    51    46    40    1
@<TRIPOS>MOLECULE
*****
 46 51 0 0 0
SMALL
GASTEIGER

@<TRIPOS>ATOM
      1 C          63.1115   89.5486   12.9357 C.3     1  UNL1        0.0821
      2 C          63.6909   88.2854   13.5001 C.3     1  UNL1        0.0194
      3 C          63.1643   87.1341   12.6956 C.3     1  UNL1        0.0188
      4 C          62.2595   87.6858   11.6340 C.3     1  UNL1        0.0722
      5 N          62.2269   89.1780   11.7824 N.3     1  UNL1       -0.2721
      6 C          63.3713   90.9384   13.4366 C.3     1  UNL1        0.1465
      7 O          64.5068   91.4346   16.1687 O.2     1  UNL1       -0.2655
      8 C          65.3480   91.6792   14.9512 C.ar    1  UNL1        0.2763
      9 C          66.7570   92.1718   15.0997 C.ar    1  UNL1        0.0588
     10 C          67.3247   92.4199   16.4657 C.ar    1  UNL1        0.0048
     11 C          68.7337   92.9125   16.6142 C.ar    1  UNL1        0.0002
     12 C          69.5749   93.1571   15.3966 C.ar    1  UNL1        0.0000
     13 C          69.0072   92.9091   14.0305 C.ar    1  UNL1        0.0014
     14 C          67.5982   92.4164   13.8820 C.ar    1  UNL1        0.0202
     15 C          67.0305   92.1683   12.5160 C.ar    1  UNL1        0.0832
     16 N          65.6215   91.6757   12.3675 N.ar    1  UNL1       -0.1708
     17 N          64.7802   91.4311   13.5851 N.ar    1  UNL1       -0.2156
     18 C          67.8717   92.4129   11.2985 C.3     1  UNL1        0.0738
     19 C          67.5173   93.5217   10.3523 C.ar    1  UNL1       -0.0161
     20 C          68.0367   93.5017    8.9453 C.ar    1  UNL1       -0.0030
     21 C          67.6823   94.6104    7.9992 C.ar    1  UNL1        0.0111
     22 C          66.8084   95.7390    8.4601 C.ar    1  UNL1        0.0577
     23 CL         66.4540   96.8478    7.5140 Cl      1  UNL1       -0.0822
     24 C          66.2889   95.7590    9.8671 C.ar    1  UNL1        0.0111
     25 C          66.6433   94.6503   10.8132 C.ar    1  UNL1       -0.0030
     26 C          61.4466   90.1322   10.9275 C.3     1  UNL1        0.0721
     27 C          60.2663   89.6424   10.1421 C.3     1  UNL1        0.0177
     28 C          60.4744   88.9576    8.8240 C.3     1  UNL1        0.0061
     29 C          60.0992   87.5145    8.6609 C.3     1  UNL1        0.0264
     30 C          61.0995   86.4400    8.9690 C.ar    1  UNL1       -0.0220
     31 C          62.1227   86.0514    7.9433 C.ar    1  UNL1       -0.0012
     32 C          63.1230   84.9770    8.2514 C.ar    1  UNL1        0.0366
     33 C          63.1001   84.2910    9.5852 C.ar    1  UNL1        0.1385
     34 C          62.0769   84.6796   10.6108 C.ar    1  UNL1        0.0366
     35 C          61.0766   85.7541   10.3027 C.ar    1  UNL1       -0.0012
     36 O          64.1004   83.2166    9.8932 O.3     1  UNL1       -0.4754
     37 C          63.6363   81.8817   10.3960 C.3     1  UNL1        0.2068
     38 C          63.7573   81.5456   11.8528 C.3     1  UNL1        0.0646
     39 C          62.7762   82.1103   12.8369 C.3     1  UNL1        0.0759
     40 N          63.2007   83.1968   13.7799 N.3     1  UNL1       -0.2726
     41 C          62.1845   83.6015   14.8062 C.3     1  UNL1        0.0721
     42 C          62.3018   84.6444   15.8781 C.3     1  UNL1        0.0173
     43 C          63.4644   85.5399   16.1883 C.3     1  UNL1        0.0015
     44 C          64.7968   85.6139   15.5033 C.3     1  UNL1        0.0015
     45 C          65.2956   84.8106   14.3389 C.3     1  UNL1        0.0173
     46 C          64.5854   83.7349   13.5719 C.3     1  UNL1        0.0721
@<TRIPOS>BOND
     1     7     8    2
     2     8     9   ar
     3     9    10   ar
     4    10    11   ar
     5    11    12   ar
     6    12    13   ar
     7    13    14   ar
     8    14    15   ar
     9    15    18    1
    10    18    19    1
    11    19    20   ar
    12    20    21   ar
    13    21    22   ar
    14    22    23    1
    15    22    24   ar
    16    24    25   ar
    17    15    16   ar
    18    16    17   ar
    19    17     6    1
    20     1     6    1
    21     1     2    1
    22     2     3    1
    23     3     4    1
    24     4     5    1
    25     5    26    1
    26    26    27    1
    27    27    28    1
    28    28    29    1
    29    29    30    1
    30    30    31   ar
    31    31    32   ar
    32    32    33   ar
    33    33    36    1
    34    36    37    1
    35    37    38    1
    36    38    39    1
    37    39    40    1
    38    40    41    1
    39    41    42    1
    40    42    43    1
    41    43    44    1
    42    44    45    1
    43    45    46    1
    44    33    34   ar
    45    34    35   ar
    46    17     8   ar
    47     5     1    1
    48    35    30   ar
    49    14     9   ar
    50    25    19   ar
    51    46    40    1
@<TRIPOS>MOLECULE
*****
 46 51 0 0 0
SMALL
GASTEIGER

@<TRIPOS>ATOM
      1 C          61.6554   88.2816   10.4521 C.3     1  UNL1        0.0821
      2 C          61.8294   89.0700   11.7163 C.3     1  UNL1        0.0194
      3 C          60.8764   90.2276   11.6756 C.3     1  UNL1        0.0188
      4 C          60.1133   90.1547   10.3862 C.3     1  UNL1        0.0722
      5 N          60.5947   88.9520    9.6301 N.3     1  UNL1       -0.2721
      6 C          62.4095   87.0408   10.0760 C.3     1  UNL1        0.1465
      7 O          62.2272   84.1172    9.4281 O.2     1  UNL1       -0.2655
      8 C          62.6502   84.5568   10.7984 C.ar    1  UNL1        0.2763
      9 C          62.9820   83.5346   11.8449 C.ar    1  UNL1        0.0588
     10 C          62.8909   82.0729   11.5210 C.ar    1  UNL1        0.0048
     11 C          63.2227   81.0507   12.5674 C.ar    1  UNL1        0.0002
     12 C          63.6456   81.4902   13.9378 C.ar    1  UNL1        0.0000
     13 C          63.7368   82.9521   14.2617 C.ar    1  UNL1        0.0014
     14 C          63.4049   83.9742   13.2153 C.ar    1  UNL1        0.0202
     15 C          63.4961   85.4360   13.5392 C.ar    1  UNL1        0.0832
     16 N          63.1643   86.4582   12.4927 N.ar    1  UNL1       -0.1708
     17 N          62.7413   86.0186   11.1224 N.ar    1  UNL1       -0.2156
     18 C          63.9190   85.8755   14.9095 C.3     1  UNL1        0.0738
     19 C          63.8627   87.3275   15.2821 C.ar    1  UNL1       -0.0161
     20 C          64.4678   88.3584   14.3760 C.ar    1  UNL1       -0.0030
     21 C          64.4115   89.8102   14.7487 C.ar    1  UNL1        0.0111
     22 C          63.7500   90.2312   16.0274 C.ar    1  UNL1        0.0577
     23 CL         63.6937   91.6831   16.4001 Cl      1  UNL1       -0.0822
     24 C          63.1450   89.2003   16.9336 C.ar    1  UNL1        0.0111
     25 C          63.2013   87.7485   16.5609 C.ar    1  UNL1       -0.0030
     26 C          60.1020   88.4992    8.2876 C.3     1  UNL1        0.0721
     27 C          59.1438   89.3545    7.5128 C.3     1  UNL1        0.0177
     28 C          59.4078   89.6565    6.0676 C.3     1  UNL1        0.0061
     29 C          59.1113   91.0212    5.5201 C.3     1  UNL1        0.0264
     30 C          59.9817   91.6041    4.4465 C.ar    1  UNL1       -0.0220
     31 C          61.4223   91.1986    4.3464 C.ar    1  UNL1       -0.0012
     32 C          62.2927   91.7814    3.2727 C.ar    1  UNL1        0.0366
     33 C          61.7224   92.7698    2.2991 C.ar    1  UNL1        0.1385
     34 C          60.2818   93.1753    2.3992 C.ar    1  UNL1        0.0366
     35 C          59.4114   92.5924    3.4729 C.ar    1  UNL1       -0.0012
     36 O          62.5928   93.3526    1.2255 O.3     1  UNL1       -0.4754
     37 C          61.9937   94.2359    0.1715 C.3     1  UNL1        0.2068
     38 C          62.3603   94.0387   -1.2695 C.3     1  UNL1        0.0646
     39 C          63.8022   93.9315   -1.6688 C.3     1  UNL1        0.0759
     40 N          64.1822   93.9514   -3.1197 N.3     1  UNL1       -0.2726
     41 C          64.0041   92.6574   -3.8570 C.3     1  UNL1        0.0721
     42 C          64.2898   92.3551   -5.2982 C.3     1  UNL1        0.0173
     43 C          64.8244   93.2722   -6.3580 C.3     1  UNL1        0.0015
     44 C          65.2051   94.7181   -6.2383 C.3     1  UNL1        0.0015
     45 C          65.1454   95.6040   -5.0294 C.3     1  UNL1        0.0173
     46 C          64.6902   95.2629   -3.6415 C.3     1  UNL1        0.0721
@<TRIPOS>BOND
     1     7     8    2
     2     8     9   ar
     3     9    10   ar
     4    10    11   ar
     5    11    12   ar
     6    12    13   ar
     7    13    14   ar
     8    14    15   ar
     9    15    18    1
    10    18    19    1
    11    19    20   ar
    12    20    21   ar
    13    21    22   ar
    14    22    23    1
    15    22    24   ar
    16    24    25   ar
    17    15    16   ar
    18    16    17   ar
    19    17     6    1
    20     1     6    1
    21     1     2    1
    22     2     3    1
    23     3     4    1
    24     4     5    1
    25     5    26    1
    26    26    27    1
    27    27    28    1
    28    28    29    1
    29    29    30    1
    30    30    31   ar
    31    31    32   ar
    32    32    33   ar
    33    33    36    1
    34    36    37    1
    35    37    38    1
    36    38    39    1
    37    39    40    1
    38    40    41    1
    39    41    42    1
    40    42    43    1
    41    43    44    1
    42    44    45    1
    43    45    46    1
    44    33    34   ar
    45    34    35   ar
    46    17     8   ar
    47     5     1    1
    48    35    30   ar
    49    14     9   ar
    50    25    19   ar
    51    46    40    1
