@<TRIPOS>MOLECULE
*****
 24 26 0 0 0
SMALL
GASTEIGER

@<TRIPOS>ATOM
      1 C          58.9968   88.3414    7.2786 C.3     1  UNL1        0.0518
      2 C          59.9674   88.3570    8.4223 C.ar    1  UNL1        0.0563
      3 N          60.3183   89.6533    9.0905 N.ar    1  UNL1       -0.2524
      4 C          61.2888   89.6690   10.2341 C.ar    1  UNL1        0.0827
      5 C          61.9084   88.3883   10.7095 C.ar    1  UNL1        0.0683
      6 C          61.5575   87.0920   10.0414 C.ar    1  UNL1        0.0048
      7 C          60.5870   87.0765    8.8977 C.ar    1  UNL1        0.0072
      8 C          62.8255   88.7129   11.8513 C.2     1  UNL1        0.2473
      9 O          63.6505   87.7290   12.6267 O.2     1  UNL1       -0.2701
     10 N          62.7726   90.1942   12.0815 N.am    1  UNL1       -0.2956
     11 C          61.8229   90.7851   11.0820 C.3     1  UNL1        0.1361
     12 H          63.2733   90.6914   12.7681 H       1  UNL1        0.1501
     13 C          62.1771   85.8113   10.5167 C.ar    1  UNL1        0.0106
     14 C          61.8487   85.2804   11.8806 C.ar    1  UNL1        0.0017
     15 C          62.4683   83.9997   12.3561 C.ar    1  UNL1        0.0114
     16 C          63.4162   83.2501   11.4676 C.ar    1  UNL1        0.0585
     17 CL         64.0357   81.9694   11.9430 Cl      1  UNL1       -0.0822
     18 C          63.7446   83.7810   10.1037 C.ar    1  UNL1        0.0228
     19 C          63.1251   85.0617    9.6282 C.ar    1  UNL1        0.0585
     20 CL         63.4534   85.5927    8.2643 Cl      1  UNL1       -0.0822
     21 C          60.2361   85.7801    8.2295 C.3     1  UNL1        0.0934
     22 N          60.7007   85.5081    6.8294 N.3     1  UNL1       -0.3174
     23 H          60.2472   86.1589    6.1882 H       1  UNL1        0.1192
     24 H          60.4588   84.5516    6.5706 H       1  UNL1        0.1192
@<TRIPOS>BOND
     1     1     2    1
     2     2     3   ar
     3     3     4   ar
     4     4     5   ar
     5     5     6   ar
     6     6    13    1
     7    13    14   ar
     8    14    15   ar
     9    15    16   ar
    10    16    17    1
    11    16    18   ar
    12    18    19   ar
    13    19    20    1
    14     6     7   ar
    15     7    21    1
    16    21    22    1
    17     5     8    1
    18     8     9    2
    19     8    10   am
    20    10    11    1
    21     7     2   ar
    22    11     4    1
    23    19    13   ar
    24    22    23    1
    25    22    24    1
    26    10    12    1
@<TRIPOS>MOLECULE
*****
 24 26 0 0 0
SMALL
GASTEIGER

@<TRIPOS>ATOM
      1 C          64.3029   85.7111   15.1772 C.3     1  UNL1        0.0518
      2 C          63.9242   86.7662   14.1804 C.ar    1  UNL1        0.0563
      3 N          64.3249   88.1933   14.4103 N.ar    1  UNL1       -0.2524
      4 C          63.9462   89.2484   13.4136 C.ar    1  UNL1        0.0827
      5 C          63.1669   88.8764   12.1871 C.ar    1  UNL1        0.0683
      6 C          62.7663   87.4493   11.9573 C.ar    1  UNL1        0.0048
      7 C          63.1450   86.3942   12.9540 C.ar    1  UNL1        0.0072
      8 C          62.9382   90.1244   11.3870 C.2     1  UNL1        0.2473
      9 O          62.2009   90.2135   10.0837 O.2     1  UNL1       -0.2701
     10 N          63.5761   91.2677   12.1190 N.am    1  UNL1       -0.2956
     11 C          64.1991   90.7264   13.3715 C.3     1  UNL1        0.1361
     12 H          63.5844   92.2083   11.8284 H       1  UNL1        0.1501
     13 C          61.9870   87.0773   10.7307 C.ar    1  UNL1        0.0106
     14 C          62.6476   86.3036    9.6285 C.ar    1  UNL1        0.0017
     15 C          61.8684   85.9314    8.4020 C.ar    1  UNL1        0.0114
     16 C          60.4286   86.3330    8.2778 C.ar    1  UNL1        0.0585
     17 CL         59.6494   85.9609    7.0513 Cl      1  UNL1       -0.0822
     18 C          59.7679   87.1067    9.3800 C.ar    1  UNL1        0.0228
     19 C          60.5471   87.4788   10.6065 C.ar    1  UNL1        0.0585
     20 CL         59.8865   88.2525   11.7088 Cl      1  UNL1       -0.0822
     21 C          62.7443   84.9670   12.7242 C.3     1  UNL1        0.0934
     22 N          63.7355   83.9908   12.1634 N.3     1  UNL1       -0.3174
     23 H          63.9722   84.2577   11.2078 H       1  UNL1        0.1192
     24 H          63.3292   83.0552   12.1644 H       1  UNL1        0.1192
@<TRIPOS>BOND
     1     1     2    1
     2     2     3   ar
     3     3     4   ar
     4     4     5   ar
     5     5     6   ar
     6     6    13    1
     7    13    14   ar
     8    14    15   ar
     9    15    16   ar
    10    16    17    1
    11    16    18   ar
    12    18    19   ar
    13    19    20    1
    14     6     7   ar
    15     7    21    1
    16    21    22    1
    17     5     8    1
    18     8     9    2
    19     8    10   am
    20    10    11    1
    21     7     2   ar
    22    11     4    1
    23    19    13   ar
    24    22    23    1
    25    22    24    1
    26    10    12    1
@<TRIPOS>MOLECULE
*****
 24 26 0 0 0
SMALL
GASTEIGER

@<TRIPOS>ATOM
      1 C          64.2360   90.7811   13.7204 C.3     1  UNL1        0.0518
      2 C          63.9103   89.3370   13.4781 C.ar    1  UNL1        0.0563
      3 N          64.3361   88.2956   14.4702 N.ar    1  UNL1       -0.2524
      4 C          64.0104   86.8515   14.2280 C.ar    1  UNL1        0.0827
      5 C          63.2589   86.4489   12.9939 C.ar    1  UNL1        0.0683
      6 C          62.8332   87.4903   12.0018 C.ar    1  UNL1        0.0048
      7 C          63.1589   88.9344   12.2440 C.ar    1  UNL1        0.0072
      8 C          63.0816   84.9597   13.0242 C.2     1  UNL1        0.2473
      9 O          62.3848   84.1334   11.9842 O.2     1  UNL1       -0.2701
     10 N          63.7235   84.4420   14.2771 N.am    1  UNL1       -0.2956
     11 C          64.2975   85.6112   15.0212 C.3     1  UNL1        0.1361
     12 H          63.7614   83.5002   14.5613 H       1  UNL1        0.1501
     13 C          62.0817   87.0877   10.7676 C.ar    1  UNL1        0.0106
     14 C          62.7989   86.4003    9.6437 C.ar    1  UNL1        0.0017
     15 C          62.0475   85.9977    8.4094 C.ar    1  UNL1        0.0114
     16 C          60.5790   86.2826    8.2991 C.ar    1  UNL1        0.0585
     17 CL         59.8276   85.8800    7.0649 Cl      1  UNL1       -0.0822
     18 C          59.8618   86.9700    9.4230 C.ar    1  UNL1        0.0228
     19 C          60.6132   87.3726   10.6573 C.ar    1  UNL1        0.0585
     20 CL         59.8960   88.0600   11.7811 Cl      1  UNL1       -0.0822
     21 C          62.7331   89.9759   11.2519 C.3     1  UNL1        0.0934
     22 N          61.5379   90.8370   11.5348 N.3     1  UNL1       -0.3174
     23 H          60.6976   90.2589   11.5467 H       1  UNL1        0.1192
     24 H          61.4514   91.5478   10.8084 H       1  UNL1        0.1192
@<TRIPOS>BOND
     1     1     2    1
     2     2     3   ar
     3     3     4   ar
     4     4     5   ar
     5     5     6   ar
     6     6    13    1
     7    13    14   ar
     8    14    15   ar
     9    15    16   ar
    10    16    17    1
    11    16    18   ar
    12    18    19   ar
    13    19    20    1
    14     6     7   ar
    15     7    21    1
    16    21    22    1
    17     5     8    1
    18     8     9    2
    19     8    10   am
    20    10    11    1
    21     7     2   ar
    22    11     4    1
    23    19    13   ar
    24    22    23    1
    25    22    24    1
    26    10    12    1
@<TRIPOS>MOLECULE
*****
 24 26 0 0 0
SMALL
GASTEIGER

@<TRIPOS>ATOM
      1 C          66.1697   92.3083   16.6089 C.3     1  UNL1        0.0518
      2 C          65.6051   92.1108   15.2332 C.ar    1  UNL1        0.0563
      3 N          64.5014   91.1197   15.0107 N.ar    1  UNL1       -0.2524
      4 C          63.9368   90.9221   13.6351 C.ar    1  UNL1        0.0827
      5 C          64.4760   91.7156   12.4820 C.ar    1  UNL1        0.0683
      6 C          65.5797   92.7067   12.7045 C.ar    1  UNL1        0.0048
      7 C          66.1443   92.9042   14.0802 C.ar    1  UNL1        0.0072
      8 C          63.7265   91.3082   11.2482 C.2     1  UNL1        0.2473
      9 O          63.9417   91.8508    9.8664 O.2     1  UNL1       -0.2701
     10 N          62.7242   90.2629   11.6388 N.am    1  UNL1       -0.2956
     11 C          62.8541   90.0243   13.1140 C.3     1  UNL1        0.1361
     12 H          62.0920   89.8125   11.0332 H       1  UNL1        0.1501
     13 C          66.1190   93.5003   11.5514 C.ar    1  UNL1        0.0106
     14 C          65.4984   94.8178   11.1924 C.ar    1  UNL1        0.0017
     15 C          66.0376   95.6114   10.0394 C.ar    1  UNL1        0.0114
     16 C          67.1973   95.0874    9.2454 C.ar    1  UNL1        0.0585
     17 CL         67.7365   95.8810    8.0924 Cl      1  UNL1       -0.0822
     18 C          67.8179   93.7698    9.6044 C.ar    1  UNL1        0.0228
     19 C          67.2787   92.9762   10.7575 C.ar    1  UNL1        0.0585
     20 CL         67.8992   91.6587   11.1165 Cl      1  UNL1       -0.0822
     21 C          67.2481   93.8953   14.3027 C.3     1  UNL1        0.0934
     22 N          68.6226   93.4179   14.6671 N.3     1  UNL1       -0.3174
     23 H          68.5975   92.9807   15.5884 H       1  UNL1        0.1192
     24 H          69.2644   94.2105   14.6843 H       1  UNL1        0.1192
@<TRIPOS>BOND
     1     1     2    1
     2     2     3   ar
     3     3     4   ar
     4     4     5   ar
     5     5     6   ar
     6     6    13    1
     7    13    14   ar
     8    14    15   ar
     9    15    16   ar
    10    16    17    1
    11    16    18   ar
    12    18    19   ar
    13    19    20    1
    14     6     7   ar
    15     7    21    1
    16    21    22    1
    17     5     8    1
    18     8     9    2
    19     8    10   am
    20    10    11    1
    21     7     2   ar
    22    11     4    1
    23    19    13   ar
    24    22    23    1
    25    22    24    1
    26    10    12    1
@<TRIPOS>MOLECULE
*****
 24 26 0 0 0
SMALL
GASTEIGER

@<TRIPOS>ATOM
      1 C          64.7310   89.2476   14.8471 C.3     1  UNL1        0.0518
      2 C          64.0391   88.3872   13.8316 C.ar    1  UNL1        0.0563
      3 N          63.3535   89.0183   12.6562 N.ar    1  UNL1       -0.2524
      4 C          62.6616   88.1579   11.6408 C.ar    1  UNL1        0.0827
      5 C          62.6554   86.6665   11.8008 C.ar    1  UNL1        0.0683
      6 C          63.3410   86.0354   12.9762 C.ar    1  UNL1        0.0048
      7 C          64.0329   86.8958   13.9916 C.ar    1  UNL1        0.0072
      8 C          61.8971   86.0797   10.6472 C.2     1  UNL1        0.2473
      9 O          61.6454   84.6204   10.4085 O.2     1  UNL1       -0.2701
     10 N          61.4346   87.2085    9.7743 N.am    1  UNL1       -0.2956
     11 C          61.9072   88.4929   10.3884 C.3     1  UNL1        0.1361
     12 H          60.9127   87.1216    8.9442 H       1  UNL1        0.1501
     13 C          63.3348   84.5439   13.1362 C.ar    1  UNL1        0.0106
     14 C          64.1938   83.6911   12.2504 C.ar    1  UNL1        0.0017
     15 C          64.1876   82.1996   12.4104 C.ar    1  UNL1        0.0114
     16 C          63.3225   81.5612   13.4562 C.ar    1  UNL1        0.0585
     17 CL         63.3164   80.0697   13.6162 Cl      1  UNL1       -0.0822
     18 C          62.4636   82.4140   14.3421 C.ar    1  UNL1        0.0228
     19 C          62.4697   83.9055   14.1821 C.ar    1  UNL1        0.0585
     20 CL         61.6107   84.7583   15.0680 Cl      1  UNL1       -0.0822
     21 C          64.7186   86.2647   15.1671 C.3     1  UNL1        0.0934
     22 N          66.0025   85.5141   14.9722 N.3     1  UNL1       -0.3174
     23 H          65.8276   84.6815   14.4095 H       1  UNL1        0.1192
     24 H          66.3763   85.2383   15.8803 H       1  UNL1        0.1192
@<TRIPOS>BOND
     1     1     2    1
     2     2     3   ar
     3     3     4   ar
     4     4     5   ar
     5     5     6   ar
     6     6    13    1
     7    13    14   ar
     8    14    15   ar
     9    15    16   ar
    10    16    17    1
    11    16    18   ar
    12    18    19   ar
    13    19    20    1
    14     6     7   ar
    15     7    21    1
    16    21    22    1
    17     5     8    1
    18     8     9    2
    19     8    10   am
    20    10    11    1
    21     7     2   ar
    22    11     4    1
    23    19    13   ar
    24    22    23    1
    25    22    24    1
    26    10    12    1
@<TRIPOS>MOLECULE
*****
 24 26 0 0 0
SMALL
GASTEIGER

@<TRIPOS>ATOM
      1 C          61.8039   88.3854   10.5303 C.3     1  UNL1        0.0518
      2 C          62.4536   87.4705   11.5259 C.ar    1  UNL1        0.0563
      3 N          63.1941   88.0426   12.6983 N.ar    1  UNL1       -0.2524
      4 C          63.8438   87.1278   13.6938 C.ar    1  UNL1        0.0827
      5 C          63.7529   85.6410   13.5171 C.ar    1  UNL1        0.0683
      6 C          63.0123   85.0690   12.3448 C.ar    1  UNL1        0.0048
      7 C          62.3627   85.9838   11.3492 C.ar    1  UNL1        0.0072
      8 C          64.4881   84.9933   14.6528 C.2     1  UNL1        0.2473
      9 O          64.6497   83.5182   14.8715 O.2     1  UNL1       -0.2701
     10 N          65.0334   86.0799   15.5315 N.am    1  UNL1       -0.2956
     11 C          64.6352   87.3990   14.9389 C.3     1  UNL1        0.1361
     12 H          65.5602   85.9500   16.3530 H       1  UNL1        0.1501
     13 C          62.9214   83.5822   12.1679 C.ar    1  UNL1        0.0106
     14 C          62.0672   82.7677   13.0936 C.ar    1  UNL1        0.0017
     15 C          61.9762   81.2810   12.9169 C.ar    1  UNL1        0.0114
     16 C          62.7394   80.6087   11.8144 C.ar    1  UNL1        0.0585
     17 CL         62.6484   79.1220   11.6376 Cl      1  UNL1       -0.0822
     18 C          63.5936   81.4232   10.8887 C.ar    1  UNL1        0.0228
     19 C          63.6846   82.9100   11.0654 C.ar    1  UNL1        0.0585
     20 CL         64.5388   83.7244   10.1397 Cl      1  UNL1       -0.0822
     21 C          61.6221   85.4118   10.1767 C.3     1  UNL1        0.0934
     22 N          62.1693   85.5785    8.7901 N.3     1  UNL1       -0.3174
     23 H          62.1553   86.5661    8.5355 H       1  UNL1        0.1192
     24 H          61.5963   85.0497    8.1326 H       1  UNL1        0.1192
@<TRIPOS>BOND
     1     1     2    1
     2     2     3   ar
     3     3     4   ar
     4     4     5   ar
     5     5     6   ar
     6     6    13    1
     7    13    14   ar
     8    14    15   ar
     9    15    16   ar
    10    16    17    1
    11    16    18   ar
    12    18    19   ar
    13    19    20    1
    14     6     7   ar
    15     7    21    1
    16    21    22    1
    17     5     8    1
    18     8     9    2
    19     8    10   am
    20    10    11    1
    21     7     2   ar
    22    11     4    1
    23    19    13   ar
    24    22    23    1
    25    22    24    1
    26    10    12    1
@<TRIPOS>MOLECULE
*****
 24 26 0 0 0
SMALL
GASTEIGER

@<TRIPOS>ATOM
      1 C          61.6635   88.7007   10.1905 C.3     1  UNL1        0.0518
      2 C          62.3444   87.8648   11.2335 C.ar    1  UNL1        0.0563
      3 N          63.0613   88.5254   12.3735 N.ar    1  UNL1       -0.2524
      4 C          63.7421   87.6896   13.4165 C.ar    1  UNL1        0.0827
      5 C          63.7061   86.1932   13.3195 C.ar    1  UNL1        0.0683
      6 C          62.9892   85.5326   12.1795 C.ar    1  UNL1        0.0048
      7 C          62.3083   86.3685   11.1365 C.ar    1  UNL1        0.0072
      8 C          64.4624   85.6345   14.4882 C.2     1  UNL1        0.2473
      9 O          64.6775   84.1801   14.7854 O.2     1  UNL1       -0.2701
     10 N          64.9659   86.7857   15.3075 N.am    1  UNL1       -0.2956
     11 C          64.5208   88.0558   14.6452 C.3     1  UNL1        0.1361
     12 H          65.4956   86.7193   16.1347 H       1  UNL1        0.1501
     13 C          62.9530   84.0361   12.0824 C.ar    1  UNL1        0.0106
     14 C          63.5971   83.3444   10.9177 C.ar    1  UNL1        0.0017
     15 C          63.5610   81.8480   10.8205 C.ar    1  UNL1        0.0114
     16 C          62.8809   81.0434   11.8882 C.ar    1  UNL1        0.0585
     17 CL         62.8448   79.5469   11.7910 Cl      1  UNL1       -0.0822
     18 C          62.2368   81.7351   13.0530 C.ar    1  UNL1        0.0228
     19 C          62.2729   83.2315   13.1501 C.ar    1  UNL1        0.0585
     20 CL         61.6289   83.9232   14.3149 Cl      1  UNL1       -0.0822
     21 C          61.5913   85.7078    9.9964 C.3     1  UNL1        0.0934
     22 N          62.2038   85.7031    8.6272 N.3     1  UNL1       -0.3174
     23 H          62.2475   86.6579    8.2710 H       1  UNL1        0.1192
     24 H          61.6344   85.1327    8.0020 H       1  UNL1        0.1192
@<TRIPOS>BOND
     1     1     2    1
     2     2     3   ar
     3     3     4   ar
     4     4     5   ar
     5     5     6   ar
     6     6    13    1
     7    13    14   ar
     8    14    15   ar
     9    15    16   ar
    10    16    17    1
    11    16    18   ar
    12    18    19   ar
    13    19    20    1
    14     6     7   ar
    15     7    21    1
    16    21    22    1
    17     5     8    1
    18     8     9    2
    19     8    10   am
    20    10    11    1
    21     7     2   ar
    22    11     4    1
    23    19    13   ar
    24    22    23    1
    25    22    24    1
    26    10    12    1
@<TRIPOS>MOLECULE
*****
 24 26 0 0 0
SMALL
GASTEIGER

@<TRIPOS>ATOM
      1 C          64.6653   89.1694   14.5473 C.3     1  UNL1        0.0518
      2 C          64.1791   87.8523   14.0190 C.ar    1  UNL1        0.0563
      3 N          64.5302   86.5816   14.7345 N.ar    1  UNL1       -0.2524
      4 C          64.0440   85.2646   14.2063 C.ar    1  UNL1        0.0827
      5 C          63.2067   85.2183   12.9626 C.ar    1  UNL1        0.0683
      6 C          62.8556   86.4890   12.2471 C.ar    1  UNL1        0.0048
      7 C          63.3418   87.8061   12.7754 C.ar    1  UNL1        0.0072
      8 C          62.8737   83.7830   12.6811 C.2     1  UNL1        0.2473
      9 O          62.0533   83.2773   11.5316 O.2     1  UNL1       -0.2701
     10 N          63.5053   82.9423   13.7508 N.am    1  UNL1       -0.2956
     11 C          64.2285   83.8579   14.6934 C.3     1  UNL1        0.1361
     12 H          63.4541   81.9617   13.8217 H       1  UNL1        0.1501
     13 C          62.0183   86.4428   11.0034 C.ar    1  UNL1        0.0106
     14 C          60.6855   87.1304   10.9706 C.ar    1  UNL1        0.0017
     15 C          59.8482   87.0842    9.7269 C.ar    1  UNL1        0.0114
     16 C          60.3436   86.3505    8.5161 C.ar    1  UNL1        0.0585
     17 CL         59.5063   86.3043    7.2724 Cl      1  UNL1       -0.0822
     18 C          61.6763   85.6629    8.5489 C.ar    1  UNL1        0.0228
     19 C          62.5137   85.7090    9.7926 C.ar    1  UNL1        0.0585
     20 CL         63.8464   85.0215    9.8254 Cl      1  UNL1       -0.0822
     21 C          62.9907   89.0769   12.0599 C.3     1  UNL1        0.0934
     22 N          61.9158   89.9710   12.6031 N.3     1  UNL1       -0.3174
     23 H          61.0167   89.4920   12.5513 H       1  UNL1        0.1192
     24 H          61.8763   90.8286   12.0522 H       1  UNL1        0.1192
@<TRIPOS>BOND
     1     1     2    1
     2     2     3   ar
     3     3     4   ar
     4     4     5   ar
     5     5     6   ar
     6     6    13    1
     7    13    14   ar
     8    14    15   ar
     9    15    16   ar
    10    16    17    1
    11    16    18   ar
    12    18    19   ar
    13    19    20    1
    14     6     7   ar
    15     7    21    1
    16    21    22    1
    17     5     8    1
    18     8     9    2
    19     8    10   am
    20    10    11    1
    21     7     2   ar
    22    11     4    1
    23    19    13   ar
    24    22    23    1
    25    22    24    1
    26    10    12    1
@<TRIPOS>MOLECULE
*****
 24 26 0 0 0
SMALL
GASTEIGER

@<TRIPOS>ATOM
      1 C          60.9606   89.1575    9.3209 C.3     1  UNL1        0.0518
      2 C          61.7516   88.6187   10.4759 C.ar    1  UNL1        0.0563
      3 N          61.8185   87.1392   10.7138 N.ar    1  UNL1       -0.2524
      4 C          62.6095   86.6003   11.8688 C.ar    1  UNL1        0.0827
      5 C          63.3336   87.5409   12.7858 C.ar    1  UNL1        0.0683
      6 C          63.2667   89.0204   12.5479 C.ar    1  UNL1        0.0048
      7 C          62.4757   89.5592   11.3929 C.ar    1  UNL1        0.0072
      8 C          64.0284   86.7233   13.8340 C.2     1  UNL1        0.2473
      9 O          64.8701   87.2578   14.9547 O.2     1  UNL1       -0.2701
     10 N          63.7337   85.2774   13.5648 N.am    1  UNL1       -0.2956
     11 C          62.8568   85.2013   12.3502 C.3     1  UNL1        0.1361
     12 H          64.0588   84.5126   14.0926 H       1  UNL1        0.1501
     13 C          63.9908   89.9611   13.4649 C.ar    1  UNL1        0.0106
     14 C          65.2159   90.6815   12.9852 C.ar    1  UNL1        0.0017
     15 C          65.9400   91.6222   13.9022 C.ar    1  UNL1        0.0114
     16 C          65.4390   91.8424   15.2987 C.ar    1  UNL1        0.0585
     17 CL         66.1631   92.7831   16.2157 Cl      1  UNL1       -0.0822
     18 C          64.2139   91.1219   15.7784 C.ar    1  UNL1        0.0228
     19 C          63.4898   90.1812   14.8615 C.ar    1  UNL1        0.0585
     20 CL         62.2647   89.4608   15.3412 Cl      1  UNL1       -0.0822
     21 C          62.4088   91.0388   11.1550 C.3     1  UNL1        0.0934
     22 N          63.1421   91.6459    9.9958 N.3     1  UNL1       -0.3174
     23 H          64.1469   91.5410   10.1365 H       1  UNL1        0.1192
     24 H          62.9100   92.6369    9.9280 H       1  UNL1        0.1192
@<TRIPOS>BOND
     1     1     2    1
     2     2     3   ar
     3     3     4   ar
     4     4     5   ar
     5     5     6   ar
     6     6    13    1
     7    13    14   ar
     8    14    15   ar
     9    15    16   ar
    10    16    17    1
    11    16    18   ar
    12    18    19   ar
    13    19    20    1
    14     6     7   ar
    15     7    21    1
    16    21    22    1
    17     5     8    1
    18     8     9    2
    19     8    10   am
    20    10    11    1
    21     7     2   ar
    22    11     4    1
    23    19    13   ar
    24    22    23    1
    25    22    24    1
    26    10    12    1
