@<TRIPOS>MOLECULE
*****
 24 26 0 0 0
SMALL
GASTEIGER

@<TRIPOS>ATOM
      1 C          61.6774   88.6167   10.2090 C.3     1  UNL1        0.1410
      2 O          62.8564   88.1342    9.4171 O.3     1  UNL1       -0.3771
      3 H          63.5355   88.8264    9.3939 H       1  UNL1        0.2112
      4 C          62.6012   89.3404   11.1434 C.ar    1  UNL1        0.0070
      5 C          63.1312   90.6943   10.7749 C.ar    1  UNL1       -0.0016
      6 C          64.0549   91.4179   11.7092 C.ar    1  UNL1        0.0013
      7 C          64.4486   90.7876   13.0122 C.ar    1  UNL1        0.0176
      8 C          63.9186   89.4336   13.3807 C.ar    1  UNL1        0.0013
      9 C          62.9949   88.7101   12.4464 C.ar    1  UNL1       -0.0016
     10 C          65.3724   91.5113   13.9466 C.ar    1  UNL1        0.0813
     11 C          66.7444   91.9072   13.4876 C.ar    1  UNL1        0.0191
     12 C          67.6681   92.6309   14.4220 C.ar    1  UNL1        0.0031
     13 C          67.2198   92.9585   15.8154 C.ar    1  UNL1        0.0207
     14 C          65.8477   92.5625   16.2744 C.ar    1  UNL1        0.0988
     15 N          64.9240   91.8389   15.3400 N.ar    1  UNL1       -0.2438
     16 C          60.4984   89.0993   11.0009 C.ar    1  UNL1        0.0825
     17 C          59.9481   90.4947   11.0014 C.ar    1  UNL1        0.1157
     18 N          58.7723   90.5290   11.9322 N.ar    1  UNL1       -0.2228
     19 C          58.5959   89.1547   12.5070 C.ar    1  UNL1        0.1749
     20 N          59.6627   88.2711   11.9315 N.ar    1  UNL1       -0.3361
     21 H          59.7918   87.3155   12.1297 H       1  UNL1        0.1673
     22 C          59.8852   88.6684    8.3288 C.3     1  UNL1        0.0031
     23 C          60.7537   87.8931    9.2747 C.3     1  UNL1        0.0340
     24 C          60.6983   86.3941    9.2862 C.3     1  UNL1        0.0031
@<TRIPOS>BOND
     1    22    23    1
     2    23    24    1
     3    23     1    1
     4     1     2    1
     5     1     4    1
     6     4     5   ar
     7     5     6   ar
     8     6     7   ar
     9     7    10    1
    10    10    11   ar
    11    11    12   ar
    12    12    13   ar
    13    13    14   ar
    14    14    15   ar
    15     7     8   ar
    16     8     9   ar
    17     1    16    1
    18    16    17   ar
    19    17    18   ar
    20    18    19   ar
    21    19    20   ar
    22     9     4   ar
    23    20    16   ar
    24    15    10   ar
    25     2     3    1
    26    20    21    1
@<TRIPOS>MOLECULE
*****
 24 26 0 0 0
SMALL
GASTEIGER

@<TRIPOS>ATOM
      1 C          60.8454   88.9344    9.5577 C.3     1  UNL1        0.1410
      2 O          60.2694   90.2668    9.1801 O.3     1  UNL1       -0.3771
      3 H          60.2988   90.8607    9.9464 H       1  UNL1        0.2112
      4 C          61.8535   89.6182   10.4331 C.ar    1  UNL1        0.0070
      5 C          61.9379   89.2734   11.8904 C.ar    1  UNL1       -0.0016
      6 C          62.9460   89.9573   12.7657 C.ar    1  UNL1        0.0013
      7 C          63.8696   90.9858   12.1836 C.ar    1  UNL1        0.0176
      8 C          63.7852   91.3306   10.7262 C.ar    1  UNL1        0.0013
      9 C          62.7772   90.6468    9.8510 C.ar    1  UNL1       -0.0016
     10 C          64.8777   91.6697   13.0590 C.ar    1  UNL1        0.0813
     11 C          65.3234   91.0224   14.3366 C.ar    1  UNL1        0.0191
     12 C          66.3315   91.7062   15.2119 C.ar    1  UNL1        0.0031
     13 C          66.8939   93.0373   14.8096 C.ar    1  UNL1        0.0207
     14 C          66.4482   93.6846   13.5319 C.ar    1  UNL1        0.0988
     15 N          65.4401   93.0008   12.6566 N.ar    1  UNL1       -0.2438
     16 C          61.4214   87.6019    9.9354 C.ar    1  UNL1        0.0825
     17 C          62.3637   86.7814    9.1053 C.ar    1  UNL1        0.1157
     18 N          62.6809   85.5283    9.8663 N.ar    1  UNL1       -0.2228
     19 C          61.9348   85.5743   11.1668 C.ar    1  UNL1        0.1749
     20 N          61.1564   86.8558   11.2095 N.ar    1  UNL1       -0.3361
     21 H          60.5738   87.1548   11.9446 H       1  UNL1        0.1673
     22 C          59.5308   88.8001    7.3208 C.3     1  UNL1        0.0031
     23 C          59.8374   88.2505    8.6824 C.3     1  UNL1        0.0340
     24 C          59.1359   87.0170    9.1687 C.3     1  UNL1        0.0031
@<TRIPOS>BOND
     1    22    23    1
     2    23    24    1
     3    23     1    1
     4     1     2    1
     5     1     4    1
     6     4     5   ar
     7     5     6   ar
     8     6     7   ar
     9     7    10    1
    10    10    11   ar
    11    11    12   ar
    12    12    13   ar
    13    13    14   ar
    14    14    15   ar
    15     7     8   ar
    16     8     9   ar
    17     1    16    1
    18    16    17   ar
    19    17    18   ar
    20    18    19   ar
    21    19    20   ar
    22     9     4   ar
    23    20    16   ar
    24    15    10   ar
    25     2     3    1
    26    20    21    1
@<TRIPOS>MOLECULE
*****
 24 26 0 0 0
SMALL
GASTEIGER

@<TRIPOS>ATOM
      1 C          62.7374   82.8802   13.8463 C.3     1  UNL1        0.1410
      2 O          62.1416   83.1128   15.2031 O.3     1  UNL1       -0.3771
      3 H          62.6429   83.8049   15.6620 H       1  UNL1        0.2112
      4 C          63.0328   84.3458   13.7247 C.ar    1  UNL1        0.0070
      5 C          63.8613   85.0331   14.7694 C.ar    1  UNL1       -0.0016
      6 C          64.1567   86.4986   14.6478 C.ar    1  UNL1        0.0013
      7 C          63.6237   87.2769   13.4815 C.ar    1  UNL1        0.0176
      8 C          62.7953   86.5897   12.4369 C.ar    1  UNL1        0.0013
      9 C          62.4998   85.1241   12.5585 C.ar    1  UNL1       -0.0016
     10 C          63.9192   88.7426   13.3599 C.ar    1  UNL1        0.0813
     11 C          64.7228   89.4361   14.4197 C.ar    1  UNL1        0.0191
     12 C          65.0182   90.9017   14.2981 C.ar    1  UNL1        0.0031
     13 C          64.5101   91.6737   13.1167 C.ar    1  UNL1        0.0207
     14 C          63.7064   90.9801   12.0569 C.ar    1  UNL1        0.0988
     15 N          63.4110   89.5146   12.1785 N.ar    1  UNL1       -0.2438
     16 C          63.3332   82.6476   12.4896 C.ar    1  UNL1        0.0825
     17 C          64.6949   83.0854   12.0377 C.ar    1  UNL1        0.1157
     18 N          64.8752   82.6447   10.6152 N.ar    1  UNL1       -0.2228
     19 C          63.6249   81.9345   10.1880 C.ar    1  UNL1        0.1749
     20 N          62.6719   81.9363   11.3463 N.ar    1  UNL1       -0.3361
     21 H          61.7707   81.5401   11.3548 H       1  UNL1        0.1673
     22 C          63.5649   80.4202   13.9622 C.3     1  UNL1        0.0031
     23 C          62.4419   81.4147   13.9678 C.3     1  UNL1        0.0340
     24 C          61.0235   80.9435   14.0950 C.3     1  UNL1        0.0031
@<TRIPOS>BOND
     1    22    23    1
     2    23    24    1
     3    23     1    1
     4     1     2    1
     5     1     4    1
     6     4     5   ar
     7     5     6   ar
     8     6     7   ar
     9     7    10    1
    10    10    11   ar
    11    11    12   ar
    12    12    13   ar
    13    13    14   ar
    14    14    15   ar
    15     7     8   ar
    16     8     9   ar
    17     1    16    1
    18    16    17   ar
    19    17    18   ar
    20    18    19   ar
    21    19    20   ar
    22     9     4   ar
    23    20    16   ar
    24    15    10   ar
    25     2     3    1
    26    20    21    1
@<TRIPOS>MOLECULE
*****
 24 26 0 0 0
SMALL
GASTEIGER

@<TRIPOS>ATOM
      1 C          62.9295   82.9735   14.1834 C.3     1  UNL1        0.1410
      2 O          62.4598   82.8581   15.6033 O.3     1  UNL1       -0.3771
      3 H          63.0107   83.4179   16.1725 H       1  UNL1        0.2112
      4 C          63.2361   84.4254   14.4027 C.ar    1  UNL1        0.0070
      5 C          63.1987   85.3825   13.2484 C.ar    1  UNL1       -0.0016
      6 C          63.5054   86.8343   13.4678 C.ar    1  UNL1        0.0013
      7 C          63.8493   87.3290   14.8415 C.ar    1  UNL1        0.0176
      8 C          63.8867   86.3719   15.9958 C.ar    1  UNL1        0.0013
      9 C          63.5801   84.9201   15.7764 C.ar    1  UNL1       -0.0016
     10 C          64.1560   88.7809   15.0608 C.ar    1  UNL1        0.0813
     11 C          63.4269   89.5493   16.1229 C.ar    1  UNL1        0.0191
     12 C          63.7336   91.0012   16.3422 C.ar    1  UNL1        0.0031
     13 C          64.7693   91.6846   15.4995 C.ar    1  UNL1        0.0207
     14 C          65.4983   90.9162   14.4373 C.ar    1  UNL1        0.0988
     15 N          65.1917   89.4643   14.2181 N.ar    1  UNL1       -0.2438
     16 C          63.3991   83.0889   12.7635 C.ar    1  UNL1        0.0825
     17 C          62.5264   83.0898   11.5435 C.ar    1  UNL1        0.1157
     18 N          63.4119   83.2251   10.3402 N.ar    1  UNL1       -0.2228
     19 C          64.8319   83.3077   10.8167 C.ar    1  UNL1        0.1749
     20 N          64.8240   83.2235   12.3143 N.ar    1  UNL1       -0.3361
     21 H          65.6151   83.2517   12.8996 H       1  UNL1        0.1673
     22 C          61.2065   81.0340   14.0424 C.3     1  UNL1        0.0031
     23 C          62.6229   81.5217   13.9640 C.3     1  UNL1        0.0340
     24 C          63.7327   80.5574   13.6662 C.3     1  UNL1        0.0031
@<TRIPOS>BOND
     1    22    23    1
     2    23    24    1
     3    23     1    1
     4     1     2    1
     5     1     4    1
     6     4     5   ar
     7     5     6   ar
     8     6     7   ar
     9     7    10    1
    10    10    11   ar
    11    11    12   ar
    12    12    13   ar
    13    13    14   ar
    14    14    15   ar
    15     7     8   ar
    16     8     9   ar
    17     1    16    1
    18    16    17   ar
    19    17    18   ar
    20    18    19   ar
    21    19    20   ar
    22     9     4   ar
    23    20    16   ar
    24    15    10   ar
    25     2     3    1
    26    20    21    1
