@<TRIPOS>MOLECULE
*****
 45 48 0 0 0
SMALL
GASTEIGER

@<TRIPOS>ATOM
      1 N          59.5571   88.5444    7.8377 N.am    1  UNL1       -0.2724
      2 C          60.2403   88.9700    9.1034 C.2     1  UNL1        0.2491
      3 O          60.0128   90.3474    9.6520 O.2     1  UNL1       -0.2727
      4 C          59.7846   87.1669    7.2892 C.3     1  UNL1        0.1111
      5 C          60.4762   86.1314    8.1255 C.3     1  UNL1        0.0939
      6 N          61.5945   85.3202    7.5414 N.3     1  UNL1       -0.2712
      7 C          62.3155   84.3199    5.2545 C.3     1  UNL1        0.0188
      8 C          61.3311   84.4042    6.3831 C.3     1  UNL1        0.0722
      9 C          62.9763   85.4250    8.1155 C.3     1  UNL1        0.0722
     10 C          63.5854   84.2511    8.8235 C.3     1  UNL1        0.0188
     11 C          58.6463   89.4963    7.1205 C.3     1  UNL1        0.1202
     12 C          59.1774   90.3445    6.0031 C.ar    1  UNL1       -0.0023
     13 C          58.2513   91.2422    5.2375 C.ar    1  UNL1       -0.0026
     14 C          58.7824   92.0904    4.1202 C.ar    1  UNL1       -0.0003
     15 C          60.2397   92.0407    3.7684 C.ar    1  UNL1       -0.0000
     16 C          61.1659   91.1429    4.5339 C.ar    1  UNL1       -0.0003
     17 C          60.6347   90.2948    5.6513 C.ar    1  UNL1       -0.0026
     18 C          60.7709   92.8889    2.6510 C.ar    1  UNL1       -0.0000
     19 C          59.8459   93.7914    1.8895 C.ar    1  UNL1       -0.0001
     20 C          60.3770   94.6396    0.7721 C.ar    1  UNL1        0.0039
     21 C          61.8331   94.5852    0.4162 C.ar    1  UNL1        0.0714
     22 C          62.7581   93.6826    1.1777 C.ar    1  UNL1        0.0039
     23 C          62.2270   92.8345    2.2950 C.ar    1  UNL1       -0.0001
     24 C          62.3643   95.4333   -0.7012 C.3     1  UNL1        0.4186
     25 F          62.8954   96.2814   -1.8185 F       1  UNL1       -0.1659
     26 F          61.2166   96.3831   -0.5258 F       1  UNL1       -0.1659
     27 F          63.5119   94.4835   -0.8765 F       1  UNL1       -0.1659
     28 C          61.1511   88.0180    9.8206 C.3     1  UNL1        0.1934
     29 N          62.0664   88.5226   10.8966 N.ar    1  UNL1       -0.2969
     30 C          62.4234   89.9784   10.9559 C.ar    1  UNL1        0.0942
     31 C          63.3386   90.4829   12.0319 C.ar    1  UNL1        0.1326
     32 CL         63.6956   91.9386   12.0912 Cl      1  UNL1       -0.0756
     33 C          63.8969   89.5318   13.0486 C.ar    1  UNL1        0.2930
     34 O          64.8122   90.0363   14.1246 O.2     1  UNL1       -0.2641
     35 N          63.5399   88.0761   12.9893 N.ar    1  UNL1       -0.1837
     36 C          62.6247   87.5715   11.9133 C.ar    1  UNL1        0.1751
     37 S          62.2677   86.1159   11.8540 S.3     1  UNL1       -0.0724
     38 C          63.2926   85.0775   12.2025 C.3     1  UNL1        0.0913
     39 C          62.8580   83.6953   12.5907 C.ar    1  UNL1       -0.0108
     40 C          62.9473   82.5745   11.5979 C.ar    1  UNL1       -0.0011
     41 C          62.5127   81.1923   11.9860 C.ar    1  UNL1        0.0293
     42 C          61.9888   80.9310   13.3671 C.ar    1  UNL1        0.1401
     43 F          61.5541   79.5488   13.7553 F       1  UNL1       -0.2042
     44 C          61.8995   82.0519   14.3599 C.ar    1  UNL1        0.0293
     45 C          62.3341   83.4340   13.9717 C.ar    1  UNL1       -0.0011
@<TRIPOS>BOND
     1     7     8    1
     2     8     6    1
     3     6     9    1
     4     9    10    1
     5     6     5    1
     6     5     4    1
     7     4     1    1
     8     1    11    1
     9    11    12    1
    10    12    13   ar
    11    13    14   ar
    12    14    15   ar
    13    15    18    1
    14    18    19   ar
    15    19    20   ar
    16    20    21   ar
    17    21    24    1
    18    24    25    1
    19    24    26    1
    20    24    27    1
    21    21    22   ar
    22    22    23   ar
    23    15    16   ar
    24    16    17   ar
    25     1     2   am
    26     2     3    2
    27     2    28    1
    28    28    29    1
    29    29    30   ar
    30    30    31   ar
    31    31    32    1
    32    31    33   ar
    33    33    34    2
    34    33    35   ar
    35    35    36   ar
    36    36    37    1
    37    37    38    1
    38    38    39    1
    39    39    40   ar
    40    40    41   ar
    41    41    42   ar
    42    42    43    1
    43    42    44   ar
    44    44    45   ar
    45    17    12   ar
    46    36    29   ar
    47    45    39   ar
    48    23    18   ar
@<TRIPOS>MOLECULE
*****
 45 48 0 0 0
SMALL
GASTEIGER

@<TRIPOS>ATOM
      1 N          63.8142   89.0117   14.9169 N.am    1  UNL1       -0.2724
      2 C          63.9840   90.3136   15.6422 C.2     1  UNL1        0.2491
      3 O          63.7354   90.3870   17.1197 O.2     1  UNL1       -0.2727
      4 C          64.0628   88.9384   13.4394 C.3     1  UNL1        0.1111
      5 C          63.1307   89.6269   12.4870 C.3     1  UNL1        0.0939
      6 N          62.0434   88.8485   11.8073 N.3     1  UNL1       -0.2712
      7 C          61.3034   86.4542   11.1218 C.3     1  UNL1        0.0188
      8 C          62.3527   87.5248   11.1730 C.3     1  UNL1        0.0722
      9 C          60.6468   89.3938   11.7619 C.3     1  UNL1        0.0722
     10 C          60.1918   90.1929   10.5768 C.3     1  UNL1        0.0188
     11 C          63.3959   87.7831   15.6689 C.3     1  UNL1        0.1202
     12 C          63.2991   86.4655   14.9585 C.ar    1  UNL1       -0.0023
     13 C          64.1856   86.1805   13.7826 C.ar    1  UNL1       -0.0026
     14 C          64.0886   84.8630   13.0723 C.ar    1  UNL1       -0.0003
     15 C          63.1052   83.8304   13.5378 C.ar    1  UNL1       -0.0000
     16 C          62.2187   84.1154   14.7138 C.ar    1  UNL1       -0.0003
     17 C          62.3157   85.4330   15.4241 C.ar    1  UNL1       -0.0026
     18 C          63.0084   82.5128   12.8274 C.ar    1  UNL1       -0.0000
     19 C          63.3749   82.4144   11.3763 C.ar    1  UNL1       -0.0001
     20 C          63.2780   81.0968   10.6659 C.ar    1  UNL1        0.0039
     21 C          62.8146   79.8777   11.4067 C.ar    1  UNL1        0.0714
     22 C          62.4480   79.9761   12.8579 C.ar    1  UNL1        0.0039
     23 C          62.5449   81.2936   13.5683 C.ar    1  UNL1       -0.0001
     24 C          62.7177   78.5601   10.6964 C.3     1  UNL1        0.4186
     25 F          62.6208   77.2426    9.9860 F       1  UNL1       -0.1659
     26 F          62.8269   77.8440   12.0098 F       1  UNL1       -0.1659
     27 F          62.6084   79.2762    9.3829 F       1  UNL1       -0.1659
     28 C          64.4023   91.5422   14.8901 C.3     1  UNL1        0.1934
     29 N          65.8589   91.8538   14.7133 N.ar    1  UNL1       -0.2969
     30 C          66.7603   91.9290   15.9099 C.ar    1  UNL1        0.0942
     31 C          68.2170   92.2405   15.7332 C.ar    1  UNL1        0.1326
     32 CL         69.1184   92.3157   16.9297 Cl      1  UNL1       -0.0756
     33 C          68.7721   92.4768   14.3598 C.ar    1  UNL1        0.2930
     34 O          70.2287   92.7883   14.1830 O.2     1  UNL1       -0.2641
     35 N          67.8706   92.4016   13.1633 N.ar    1  UNL1       -0.1837
     36 C          66.4140   92.0901   13.3401 C.ar    1  UNL1        0.1751
     37 S          65.5126   92.0148   12.1436 S.3     1  UNL1       -0.0724
     38 C          64.9321   93.2697   11.5617 C.3     1  UNL1        0.0913
     39 C          65.7431   94.1015   10.6130 C.ar    1  UNL1       -0.0108
     40 C          65.4111   95.5507   10.4140 C.ar    1  UNL1       -0.0011
     41 C          66.2222   96.3826    9.4652 C.ar    1  UNL1        0.0293
     42 C          67.3653   95.7652    8.7154 C.ar    1  UNL1        0.1401
     43 F          68.1764   96.5971    7.7666 F       1  UNL1       -0.2042
     44 C          67.6973   94.3160    8.9144 C.ar    1  UNL1        0.0293
     45 C          66.8862   93.4842    9.8632 C.ar    1  UNL1       -0.0011
@<TRIPOS>BOND
     1     7     8    1
     2     8     6    1
     3     6     9    1
     4     9    10    1
     5     6     5    1
     6     5     4    1
     7     4     1    1
     8     1    11    1
     9    11    12    1
    10    12    13   ar
    11    13    14   ar
    12    14    15   ar
    13    15    18    1
    14    18    19   ar
    15    19    20   ar
    16    20    21   ar
    17    21    24    1
    18    24    25    1
    19    24    26    1
    20    24    27    1
    21    21    22   ar
    22    22    23   ar
    23    15    16   ar
    24    16    17   ar
    25     1     2   am
    26     2     3    2
    27     2    28    1
    28    28    29    1
    29    29    30   ar
    30    30    31   ar
    31    31    32    1
    32    31    33   ar
    33    33    34    2
    34    33    35   ar
    35    35    36   ar
    36    36    37    1
    37    37    38    1
    38    38    39    1
    39    39    40   ar
    40    40    41   ar
    41    41    42   ar
    42    42    43    1
    43    42    44   ar
    44    44    45   ar
    45    17    12   ar
    46    36    29   ar
    47    45    39   ar
    48    23    18   ar
@<TRIPOS>MOLECULE
*****
 45 48 0 0 0
SMALL
GASTEIGER

@<TRIPOS>ATOM
      1 N          61.1981   86.3240   10.6110 N.am    1  UNL1       -0.2724
      2 C          62.0424   85.2456    9.9993 C.2     1  UNL1        0.2491
      3 O          61.5925   84.5636    8.7414 O.2     1  UNL1       -0.2727
      4 C          61.6480   87.0061   11.8689 C.3     1  UNL1        0.1111
      5 C          62.4987   88.2390   11.7905 C.3     1  UNL1        0.0939
      6 N          61.8798   89.5909   11.9887 N.3     1  UNL1       -0.2712
      7 C          63.1448   91.1799   10.3685 C.3     1  UNL1        0.0188
      8 C          62.6931   90.8296   11.7553 C.3     1  UNL1        0.0722
      9 C          60.4478   89.7043   12.4203 C.3     1  UNL1        0.0722
     10 C          59.4983   90.5723   11.6488 C.3     1  UNL1        0.0188
     11 C          59.9038   86.7204    9.9647 C.3     1  UNL1        0.1202
     12 C          59.9011   87.7054    8.8334 C.ar    1  UNL1       -0.0023
     13 C          59.3301   87.3167    7.5019 C.ar    1  UNL1       -0.0026
     14 C          59.3275   88.3017    6.3706 C.ar    1  UNL1       -0.0003
     15 C          59.8958   89.6753    6.5709 C.ar    1  UNL1       -0.0000
     16 C          60.4668   90.0640    7.9023 C.ar    1  UNL1       -0.0003
     17 C          60.4695   89.0790    9.0336 C.ar    1  UNL1       -0.0026
     18 C          59.8932   90.6603    5.4395 C.ar    1  UNL1       -0.0000
     19 C          58.6200   91.3507    5.0492 C.ar    1  UNL1       -0.0001
     20 C          58.6173   92.3357    3.9178 C.ar    1  UNL1        0.0039
     21 C          59.8879   92.6302    3.1769 C.ar    1  UNL1        0.0714
     22 C          61.1611   91.9398    3.5673 C.ar    1  UNL1        0.0039
     23 C          61.1637   90.9549    4.6986 C.ar    1  UNL1       -0.0001
     24 C          59.8852   93.6152    2.0456 C.3     1  UNL1        0.4186
     25 F          59.8826   94.6001    0.9143 F       1  UNL1       -0.1659
     26 F          59.6846   92.4938    1.0698 F       1  UNL1       -0.1659
     27 F          60.0859   94.7365    3.0214 F       1  UNL1       -0.1659
     28 C          63.3368   84.8492   10.6457 C.3     1  UNL1        0.1934
     29 N          63.3780   83.6838   11.5890 N.ar    1  UNL1       -0.2969
     30 C          63.0167   82.3117   11.1022 C.ar    1  UNL1        0.0942
     31 C          63.0579   81.1462   12.0456 C.ar    1  UNL1        0.1326
     32 CL         62.6966   79.7742   11.5588 Cl      1  UNL1       -0.0756
     33 C          63.4604   81.3528   13.4758 C.ar    1  UNL1        0.2930
     34 O          63.5015   80.1873   14.4191 O.2     1  UNL1       -0.2641
     35 N          63.8216   82.7248   13.9625 N.ar    1  UNL1       -0.1837
     36 C          63.7804   83.8903   13.0192 C.ar    1  UNL1        0.1751
     37 S          64.1417   85.2623   13.5060 S.3     1  UNL1       -0.0724
     38 C          64.0251   85.5958   14.9638 C.3     1  UNL1        0.0913
     39 C          63.8751   87.0240   15.3969 C.ar    1  UNL1       -0.0108
     40 C          64.4022   88.1295   14.5309 C.ar    1  UNL1       -0.0011
     41 C          64.2522   89.5579   14.9639 C.ar    1  UNL1        0.0293
     42 C          63.5752   89.8806   16.2629 C.ar    1  UNL1        0.1401
     43 F          63.4252   91.3088   16.6960 F       1  UNL1       -0.2042
     44 C          63.0480   88.7750   17.1289 C.ar    1  UNL1        0.0293
     45 C          63.1980   87.3467   16.6959 C.ar    1  UNL1       -0.0011
@<TRIPOS>BOND
     1     7     8    1
     2     8     6    1
     3     6     9    1
     4     9    10    1
     5     6     5    1
     6     5     4    1
     7     4     1    1
     8     1    11    1
     9    11    12    1
    10    12    13   ar
    11    13    14   ar
    12    14    15   ar
    13    15    18    1
    14    18    19   ar
    15    19    20   ar
    16    20    21   ar
    17    21    24    1
    18    24    25    1
    19    24    26    1
    20    24    27    1
    21    21    22   ar
    22    22    23   ar
    23    15    16   ar
    24    16    17   ar
    25     1     2   am
    26     2     3    2
    27     2    28    1
    28    28    29    1
    29    29    30   ar
    30    30    31   ar
    31    31    32    1
    32    31    33   ar
    33    33    34    2
    34    33    35   ar
    35    35    36   ar
    36    36    37    1
    37    37    38    1
    38    38    39    1
    39    39    40   ar
    40    40    41   ar
    41    41    42   ar
    42    42    43    1
    43    42    44   ar
    44    44    45   ar
    45    17    12   ar
    46    36    29   ar
    47    45    39   ar
    48    23    18   ar
@<TRIPOS>MOLECULE
*****
 45 48 0 0 0
SMALL
GASTEIGER

@<TRIPOS>ATOM
      1 N          63.1501   90.6719   12.1253 N.am    1  UNL1       -0.2724
      2 C          63.9840   91.5509   11.2411 C.2     1  UNL1        0.2491
      3 O          63.7067   91.6123    9.7683 O.2     1  UNL1       -0.2727
      4 C          63.4274   90.6106   13.5983 C.3     1  UNL1        0.1111
      5 C          62.7325   89.5904   14.4505 C.3     1  UNL1        0.0939
      6 N          63.5252   88.7380   15.3964 N.3     1  UNL1       -0.2712
      7 C          62.5561   87.4247   17.4179 C.3     1  UNL1        0.0188
      8 C          63.1492   88.6787   16.8474 C.3     1  UNL1        0.0722
      9 C          64.6939   87.9447   14.8915 C.3     1  UNL1        0.0722
     10 C          64.8053   86.4844   15.2156 C.3     1  UNL1        0.0188
     11 C          62.0388   89.8542   11.5367 C.3     1  UNL1        0.1202
     12 C          62.1742   88.3634   11.4408 C.ar    1  UNL1       -0.0023
     13 C          63.1489   87.6405   12.3225 C.ar    1  UNL1       -0.0026
     14 C          63.2842   86.1498   12.2266 C.ar    1  UNL1       -0.0003
     15 C          62.4449   85.3819   11.2489 C.ar    1  UNL1       -0.0000
     16 C          61.4703   86.1047   10.3672 C.ar    1  UNL1       -0.0003
     17 C          61.3349   87.5955   10.4631 C.ar    1  UNL1       -0.0026
     18 C          62.5803   83.8910   11.1530 C.ar    1  UNL1       -0.0000
     19 C          62.0823   83.0194   12.2676 C.ar    1  UNL1       -0.0001
     20 C          62.2177   81.5286   12.1716 C.ar    1  UNL1        0.0039
     21 C          62.8511   80.9094   10.9611 C.ar    1  UNL1        0.0714
     22 C          63.3490   81.7811    9.8464 C.ar    1  UNL1        0.0039
     23 C          63.2136   83.2718    9.9424 C.ar    1  UNL1       -0.0001
     24 C          62.9865   79.4187   10.8651 C.3     1  UNL1        0.4186
     25 F          63.1219   77.9279   10.7691 F       1  UNL1       -0.1659
     26 F          62.6861   79.2971   12.3296 F       1  UNL1       -0.1659
     27 F          63.2869   79.5402    9.4005 F       1  UNL1       -0.1659
     28 C          65.0953   92.3686   11.8298 C.3     1  UNL1        0.1934
     29 N          65.8647   93.3219   10.9642 N.ar    1  UNL1       -0.2969
     30 C          65.2066   94.5693   10.4533 C.ar    1  UNL1        0.0942
     31 C          65.9760   95.5226    9.5877 C.ar    1  UNL1        0.1326
     32 CL         65.3179   96.7699    9.0767 Cl      1  UNL1       -0.0756
     33 C          67.4035   95.2285    9.2330 C.ar    1  UNL1        0.2930
     34 O          68.1729   96.1818    8.3675 O.2     1  UNL1       -0.2641
     35 N          68.0616   93.9812    9.7440 N.ar    1  UNL1       -0.1837
     36 C          67.2922   93.0279   10.6096 C.ar    1  UNL1        0.1751
     37 S          67.9503   91.7806   11.1205 S.3     1  UNL1       -0.0724
     38 C          68.6916   91.8039   12.4244 C.3     1  UNL1        0.0913
     39 C          67.9491   92.0457   13.7051 C.ar    1  UNL1       -0.0108
     40 C          66.6478   91.3451   13.9612 C.ar    1  UNL1       -0.0011
     41 C          65.9052   91.5869   15.2419 C.ar    1  UNL1        0.0293
     42 C          66.4641   92.5292   16.2665 C.ar    1  UNL1        0.1401
     43 F          65.7216   92.7709   17.5472 F       1  UNL1       -0.2042
     44 C          67.7655   93.2297   16.0103 C.ar    1  UNL1        0.0293
     45 C          68.5080   92.9879   14.7296 C.ar    1  UNL1       -0.0011
@<TRIPOS>BOND
     1     7     8    1
     2     8     6    1
     3     6     9    1
     4     9    10    1
     5     6     5    1
     6     5     4    1
     7     4     1    1
     8     1    11    1
     9    11    12    1
    10    12    13   ar
    11    13    14   ar
    12    14    15   ar
    13    15    18    1
    14    18    19   ar
    15    19    20   ar
    16    20    21   ar
    17    21    24    1
    18    24    25    1
    19    24    26    1
    20    24    27    1
    21    21    22   ar
    22    22    23   ar
    23    15    16   ar
    24    16    17   ar
    25     1     2   am
    26     2     3    2
    27     2    28    1
    28    28    29    1
    29    29    30   ar
    30    30    31   ar
    31    31    32    1
    32    31    33   ar
    33    33    34    2
    34    33    35   ar
    35    35    36   ar
    36    36    37    1
    37    37    38    1
    38    38    39    1
    39    39    40   ar
    40    40    41   ar
    41    41    42   ar
    42    42    43    1
    43    42    44   ar
    44    44    45   ar
    45    17    12   ar
    46    36    29   ar
    47    45    39   ar
    48    23    18   ar
@<TRIPOS>MOLECULE
*****
 45 48 0 0 0
SMALL
GASTEIGER

@<TRIPOS>ATOM
      1 N          60.9046   87.7174   11.2183 N.am    1  UNL1       -0.2724
      2 C          60.5840   88.8752   12.1165 C.2     1  UNL1        0.2491
      3 O          59.3595   89.7039   11.8638 O.2     1  UNL1       -0.2727
      4 C          62.1292   86.8888   11.4711 C.3     1  UNL1        0.1111
      5 C          62.1201   85.4221   11.1572 C.3     1  UNL1        0.0939
      6 N          62.8283   84.9119    9.9373 N.3     1  UNL1       -0.2712
      7 C          64.2411   83.2408   11.3379 C.3     1  UNL1        0.0188
      8 C          63.6664   83.6705   10.0208 C.3     1  UNL1        0.0722
      9 C          62.6986   85.6429    8.6340 C.3     1  UNL1        0.0722
     10 C          62.6849   84.8785    7.3434 C.3     1  UNL1        0.0188
     11 C          60.0007   87.3883   10.0674 C.3     1  UNL1        0.1202
     12 C          59.9743   88.2743    8.8573 C.ar    1  UNL1       -0.0023
     13 C          60.7482   89.5593    8.8515 C.ar    1  UNL1       -0.0026
     14 C          60.7217   90.4452    7.6414 C.ar    1  UNL1       -0.0003
     15 C          59.9215   90.0462    6.4371 C.ar    1  UNL1       -0.0000
     16 C          59.1476   88.7613    6.4429 C.ar    1  UNL1       -0.0003
     17 C          59.1741   87.8753    7.6530 C.ar    1  UNL1       -0.0026
     18 C          59.8950   90.9322    5.2269 C.ar    1  UNL1       -0.0000
     19 C          61.1737   91.2801    4.5241 C.ar    1  UNL1       -0.0001
     20 C          61.1472   92.1661    3.3139 C.ar    1  UNL1        0.0039
     21 C          59.8422   92.7042    2.8067 C.ar    1  UNL1        0.0714
     22 C          58.5635   92.3563    3.5097 C.ar    1  UNL1        0.0039
     23 C          58.5900   91.4703    4.7197 C.ar    1  UNL1       -0.0001
     24 C          59.8157   93.5902    1.5967 C.3     1  UNL1        0.4186
     25 F          59.7893   94.4762    0.3866 F       1  UNL1       -0.1659
     26 F          60.2201   94.7598    2.4442 F       1  UNL1       -0.1659
     27 F          59.4114   92.4205    0.7491 F       1  UNL1       -0.1659
     28 C          61.4879   89.2043   13.2675 C.3     1  UNL1        0.1934
     29 N          62.6409   90.1435   13.0709 N.ar    1  UNL1       -0.2969
     30 C          62.9592   90.6636   11.7004 C.ar    1  UNL1        0.0942
     31 C          64.1122   91.6028   11.5038 C.ar    1  UNL1        0.1326
     32 CL         64.4306   92.1229   10.1334 Cl      1  UNL1       -0.0756
     33 C          64.9468   92.0218   12.6777 C.ar    1  UNL1        0.2930
     34 O          66.0998   92.9610   12.4811 O.2     1  UNL1       -0.2641
     35 N          64.6284   91.5017   14.0481 N.ar    1  UNL1       -0.1837
     36 C          63.4754   90.5626   14.2447 C.ar    1  UNL1        0.1751
     37 S          63.1570   90.0424   15.6151 S.3     1  UNL1       -0.0724
     38 C          64.0193   88.9825   16.2341 C.3     1  UNL1        0.0913
     39 C          63.7276   87.5338   15.9773 C.ar    1  UNL1       -0.0108
     40 C          64.2829   86.8619   14.7566 C.ar    1  UNL1       -0.0011
     41 C          63.9912   85.4130   14.4998 C.ar    1  UNL1        0.0293
     42 C          63.1441   84.6362   15.4636 C.ar    1  UNL1        0.1401
     43 F          62.8524   83.1875   15.2068 F       1  UNL1       -0.2042
     44 C          62.5887   85.3082   16.6843 C.ar    1  UNL1        0.0293
     45 C          62.8805   86.7570   16.9411 C.ar    1  UNL1       -0.0011
@<TRIPOS>BOND
     1     7     8    1
     2     8     6    1
     3     6     9    1
     4     9    10    1
     5     6     5    1
     6     5     4    1
     7     4     1    1
     8     1    11    1
     9    11    12    1
    10    12    13   ar
    11    13    14   ar
    12    14    15   ar
    13    15    18    1
    14    18    19   ar
    15    19    20   ar
    16    20    21   ar
    17    21    24    1
    18    24    25    1
    19    24    26    1
    20    24    27    1
    21    21    22   ar
    22    22    23   ar
    23    15    16   ar
    24    16    17   ar
    25     1     2   am
    26     2     3    2
    27     2    28    1
    28    28    29    1
    29    29    30   ar
    30    30    31   ar
    31    31    32    1
    32    31    33   ar
    33    33    34    2
    34    33    35   ar
    35    35    36   ar
    36    36    37    1
    37    37    38    1
    38    38    39    1
    39    39    40   ar
    40    40    41   ar
    41    41    42   ar
    42    42    43    1
    43    42    44   ar
    44    44    45   ar
    45    17    12   ar
    46    36    29   ar
    47    45    39   ar
    48    23    18   ar
@<TRIPOS>MOLECULE
*****
 45 48 0 0 0
SMALL
GASTEIGER

@<TRIPOS>ATOM
      1 N          64.5046   89.8110   14.4055 N.am    1  UNL1       -0.2724
      2 C          63.1396   90.3092   14.0333 C.2     1  UNL1        0.2491
      3 O          61.9208   89.5436   14.4558 O.2     1  UNL1       -0.2727
      4 C          65.7234   90.5767   13.9830 C.3     1  UNL1        0.1111
      5 C          66.9005   90.6820   14.9067 C.3     1  UNL1        0.0939
      6 N          67.1999   91.9807   15.5949 N.3     1  UNL1       -0.2712
      7 C          68.9649   93.8652   15.8837 C.3     1  UNL1        0.0188
      8 C          68.6225   92.4069   15.8064 C.3     1  UNL1        0.0722
      9 C          66.0768   92.8532   16.0717 C.3     1  UNL1        0.0722
     10 C          64.9268   92.2514   16.8237 C.3     1  UNL1        0.0188
     11 C          64.6509   88.5473   15.2002 C.3     1  UNL1        0.1202
     12 C          64.3788   87.2203   14.5557 C.ar    1  UNL1       -0.0023
     13 C          63.5727   87.1512   13.2927 C.ar    1  UNL1       -0.0026
     14 C          63.3006   85.8243   12.6483 C.ar    1  UNL1       -0.0003
     15 C          63.8347   84.5665   13.2670 C.ar    1  UNL1       -0.0000
     16 C          64.6408   84.6356   14.5300 C.ar    1  UNL1       -0.0003
     17 C          64.9129   85.9625   15.1744 C.ar    1  UNL1       -0.0026
     18 C          63.5626   83.2395   12.6226 C.ar    1  UNL1       -0.0000
     19 C          63.8088   83.0541   11.1546 C.ar    1  UNL1       -0.0001
     20 C          63.5367   81.7272   10.5102 C.ar    1  UNL1        0.0039
     21 C          63.0184   80.5857   11.3338 C.ar    1  UNL1        0.0714
     22 C          62.7722   80.7711   12.8018 C.ar    1  UNL1        0.0039
     23 C          63.0442   82.0980   13.4462 C.ar    1  UNL1       -0.0001
     24 C          62.7463   79.2588   10.6894 C.3     1  UNL1        0.4186
     25 F          62.4742   77.9319   10.0451 F       1  UNL1       -0.1659
     26 F          63.0383   79.8526    9.3433 F       1  UNL1       -0.1659
     27 F          62.4543   78.6650   12.0355 F       1  UNL1       -0.1659
     28 C          62.9933   91.5730   13.2386 C.3     1  UNL1        0.1934
     29 N          64.0602   91.9732   12.2630 N.ar    1  UNL1       -0.2969
     30 C          65.2484   92.7595   12.7319 C.ar    1  UNL1        0.0942
     31 C          66.3153   93.1597   11.7563 C.ar    1  UNL1        0.1326
     32 CL         67.5035   93.9460   12.2250 Cl      1  UNL1       -0.0756
     33 C          66.1938   92.7735   10.3119 C.ar    1  UNL1        0.2930
     34 O          67.2606   93.1737    9.3363 O.2     1  UNL1       -0.2641
     35 N          65.0056   91.9872    9.8432 N.ar    1  UNL1       -0.1837
     36 C          63.9388   91.5870   10.8187 C.ar    1  UNL1        0.1751
     37 S          62.7505   90.8007   10.3500 S.3     1  UNL1       -0.0724
     38 C          62.7126   89.3133   10.5412 C.3     1  UNL1        0.0913
     39 C          61.7807   88.4748    9.7175 C.ar    1  UNL1       -0.0108
     40 C          62.0731   87.0195    9.5025 C.ar    1  UNL1       -0.0011
     41 C          61.1412   86.1809    8.6788 C.ar    1  UNL1        0.0293
     42 C          59.9168   86.7978    8.0702 C.ar    1  UNL1        0.1401
     43 F          58.9849   85.9593    7.2466 F       1  UNL1       -0.2042
     44 C          59.6244   88.2533    8.2853 C.ar    1  UNL1        0.0293
     45 C          60.5563   89.0917    9.1089 C.ar    1  UNL1       -0.0011
@<TRIPOS>BOND
     1     7     8    1
     2     8     6    1
     3     6     9    1
     4     9    10    1
     5     6     5    1
     6     5     4    1
     7     4     1    1
     8     1    11    1
     9    11    12    1
    10    12    13   ar
    11    13    14   ar
    12    14    15   ar
    13    15    18    1
    14    18    19   ar
    15    19    20   ar
    16    20    21   ar
    17    21    24    1
    18    24    25    1
    19    24    26    1
    20    24    27    1
    21    21    22   ar
    22    22    23   ar
    23    15    16   ar
    24    16    17   ar
    25     1     2   am
    26     2     3    2
    27     2    28    1
    28    28    29    1
    29    29    30   ar
    30    30    31   ar
    31    31    32    1
    32    31    33   ar
    33    33    34    2
    34    33    35   ar
    35    35    36   ar
    36    36    37    1
    37    37    38    1
    38    38    39    1
    39    39    40   ar
    40    40    41   ar
    41    41    42   ar
    42    42    43    1
    43    42    44   ar
    44    44    45   ar
    45    17    12   ar
    46    36    29   ar
    47    45    39   ar
    48    23    18   ar
@<TRIPOS>MOLECULE
*****
 45 48 0 0 0
SMALL
GASTEIGER

@<TRIPOS>ATOM
      1 N          60.0596   89.1245    9.0641 N.am    1  UNL1       -0.2724
      2 C          59.7749   87.9562    9.9607 C.2     1  UNL1        0.2491
      3 O          59.7135   88.1490   11.4470 O.2     1  UNL1       -0.2727
      4 C          60.1210   88.9317    7.5777 C.3     1  UNL1        0.1111
      5 C          59.0153   89.4517    6.7077 C.3     1  UNL1        0.0939
      6 N          59.2984   90.5194    5.6930 N.3     1  UNL1       -0.2712
      7 C          60.9721   91.7645    4.1442 C.3     1  UNL1        0.0188
      8 C          60.6897   90.6992    5.1617 C.3     1  UNL1        0.0722
      9 C          58.1904   91.4074    5.2095 C.3     1  UNL1        0.0722
     10 C          56.7765   90.9063    5.2026 C.3     1  UNL1        0.0188
     11 C          60.2830   90.4855    9.6537 C.3     1  UNL1        0.1202
     12 C          61.4856   90.7427   10.5126 C.ar    1  UNL1       -0.0023
     13 C          62.7204   91.3471    9.9126 C.ar    1  UNL1       -0.0026
     14 C          63.9229   91.6042   10.7716 C.ar    1  UNL1       -0.0003
     15 C          63.8906   91.2569   12.2304 C.ar    1  UNL1       -0.0000
     16 C          62.6559   90.6525   12.8304 C.ar    1  UNL1       -0.0003
     17 C          61.4534   90.3954   11.9715 C.ar    1  UNL1       -0.0026
     18 C          65.0933   91.5140   13.0894 C.ar    1  UNL1       -0.0000
     19 C          66.3630   92.0185   12.4704 C.ar    1  UNL1       -0.0001
     20 C          67.5656   92.2757   13.3293 C.ar    1  UNL1        0.0039
     21 C          67.4984   92.0283   14.8072 C.ar    1  UNL1        0.0714
     22 C          66.2286   91.5237   15.4262 C.ar    1  UNL1        0.0039
     23 C          65.0260   91.2666   14.5673 C.ar    1  UNL1       -0.0001
     24 C          68.7009   92.2854   15.6662 C.3     1  UNL1        0.4186
     25 F          69.9034   92.5425   16.5251 F       1  UNL1       -0.1659
     26 F          67.8498   92.1606   16.8950 F       1  UNL1       -0.1659
     27 F          69.5519   92.4102   14.4373 F       1  UNL1       -0.1659
     28 C          59.5515   86.5952    9.3711 C.3     1  UNL1        0.1934
     29 N          60.6040   85.9720    8.5029 N.ar    1  UNL1       -0.2969
     30 C          60.2358   85.4177    7.1585 C.ar    1  UNL1        0.0942
     31 C          61.2884   84.7945    6.2903 C.ar    1  UNL1        0.1326
     32 CL         60.9203   84.2403    4.9460 Cl      1  UNL1       -0.0756
     33 C          62.7092   84.7256    6.7666 C.ar    1  UNL1        0.2930
     34 O          63.7618   84.1024    5.8984 O.2     1  UNL1       -0.2641
     35 N          63.0773   85.2799    8.1109 N.ar    1  UNL1       -0.1837
     36 C          62.0248   85.9031    8.9790 C.ar    1  UNL1        0.1751
     37 S          62.3929   86.4573   10.3234 S.3     1  UNL1       -0.0724
     38 C          61.9026   85.7852   11.5716 C.3     1  UNL1        0.0913
     39 C          62.5778   84.5413   12.0683 C.ar    1  UNL1       -0.0108
     40 C          62.5049   84.1778   13.5218 C.ar    1  UNL1       -0.0011
     41 C          63.1800   82.9339   14.0186 C.ar    1  UNL1        0.0293
     42 C          63.9281   82.0535   13.0619 C.ar    1  UNL1        0.1401
     43 F          64.6033   80.8096   13.5587 F       1  UNL1       -0.2042
     44 C          64.0010   82.4170   11.6084 C.ar    1  UNL1        0.0293
     45 C          63.3259   83.6609   11.1117 C.ar    1  UNL1       -0.0011
@<TRIPOS>BOND
     1     7     8    1
     2     8     6    1
     3     6     9    1
     4     9    10    1
     5     6     5    1
     6     5     4    1
     7     4     1    1
     8     1    11    1
     9    11    12    1
    10    12    13   ar
    11    13    14   ar
    12    14    15   ar
    13    15    18    1
    14    18    19   ar
    15    19    20   ar
    16    20    21   ar
    17    21    24    1
    18    24    25    1
    19    24    26    1
    20    24    27    1
    21    21    22   ar
    22    22    23   ar
    23    15    16   ar
    24    16    17   ar
    25     1     2   am
    26     2     3    2
    27     2    28    1
    28    28    29    1
    29    29    30   ar
    30    30    31   ar
    31    31    32    1
    32    31    33   ar
    33    33    34    2
    34    33    35   ar
    35    35    36   ar
    36    36    37    1
    37    37    38    1
    38    38    39    1
    39    39    40   ar
    40    40    41   ar
    41    41    42   ar
    42    42    43    1
    43    42    44   ar
    44    44    45   ar
    45    17    12   ar
    46    36    29   ar
    47    45    39   ar
    48    23    18   ar
@<TRIPOS>MOLECULE
*****
 45 48 0 0 0
SMALL
GASTEIGER

@<TRIPOS>ATOM
      1 N          64.1283   90.9073   12.3948 N.am    1  UNL1       -0.2724
      2 C          64.5473   91.6074   11.1361 C.2     1  UNL1        0.2491
      3 O          63.6806   91.5357    9.9140 O.2     1  UNL1       -0.2727
      4 C          64.9951   90.9790   13.6170 C.3     1  UNL1        0.1111
      5 C          64.7367   90.0608   14.7746 C.3     1  UNL1        0.0939
      6 N          63.7496   90.4501   15.8348 N.3     1  UNL1       -0.2712
      7 C          65.0883   92.3424   17.0084 C.3     1  UNL1        0.0188
      8 C          63.8014   91.8214   16.4406 C.3     1  UNL1        0.0722
      9 C          62.7107   89.4682   16.2892 C.3     1  UNL1        0.0722
     10 C          63.1079   88.2920   17.1311 C.3     1  UNL1        0.0188
     11 C          62.8426   90.1356   12.4314 C.3     1  UNL1        0.1202
     12 C          62.8539   88.6493   12.2291 C.ar    1  UNL1       -0.0023
     13 C          62.1154   88.0442   11.0722 C.ar    1  UNL1       -0.0026
     14 C          62.1267   86.5580   10.8699 C.ar    1  UNL1       -0.0003
     15 C          62.8766   85.6768   11.8245 C.ar    1  UNL1       -0.0000
     16 C          63.6152   86.2819   12.9814 C.ar    1  UNL1       -0.0003
     17 C          63.6039   87.7681   13.1836 C.ar    1  UNL1       -0.0026
     18 C          62.8880   84.1905   11.6222 C.ar    1  UNL1       -0.0000
     19 C          63.6507   83.5955   10.4759 C.ar    1  UNL1       -0.0001
     20 C          63.6620   82.1092   10.2736 C.ar    1  UNL1        0.0039
     21 C          62.9106   81.2180   11.2176 C.ar    1  UNL1        0.0714
     22 C          62.1478   81.8132   12.3639 C.ar    1  UNL1        0.0039
     23 C          62.1365   83.2994   12.5662 C.ar    1  UNL1       -0.0001
     24 C          62.9218   79.7318   11.0153 C.3     1  UNL1        0.4186
     25 F          62.9331   78.2456   10.8130 F       1  UNL1       -0.1659
     26 F          62.9171   79.9340    9.5290 F       1  UNL1       -0.1659
     27 F          62.9266   79.5296   12.5016 F       1  UNL1       -0.1659
     28 C          65.8331   92.3791   11.0996 C.3     1  UNL1        0.1934
     29 N          66.4608   92.8515   12.3774 N.ar    1  UNL1       -0.2969
     30 C          67.1463   91.8719   13.2832 C.ar    1  UNL1        0.0942
     31 C          67.7740   92.3444   14.5610 C.ar    1  UNL1        0.1326
     32 CL         68.4595   91.3649   15.4669 Cl      1  UNL1       -0.0756
     33 C          67.7162   93.7964   14.9330 C.ar    1  UNL1        0.2930
     34 O          68.3439   94.2689   16.2108 O.2     1  UNL1       -0.2641
     35 N          67.0307   94.7760   14.0271 N.ar    1  UNL1       -0.1837
     36 C          66.4030   94.3035   12.7493 C.ar    1  UNL1        0.1751
     37 S          65.7175   95.2830   11.8435 S.3     1  UNL1       -0.0724
     38 C          66.5294   96.1749   10.9516 C.3     1  UNL1        0.0913
     39 C          66.2426   96.2259    9.4801 C.ar    1  UNL1       -0.0108
     40 C          67.2496   95.6991    8.5011 C.ar    1  UNL1       -0.0011
     41 C          66.9628   95.7501    7.0296 C.ar    1  UNL1        0.0293
     42 C          65.6691   96.3279    6.5372 C.ar    1  UNL1        0.1401
     43 F          65.3823   96.3789    5.0658 F       1  UNL1       -0.2042
     44 C          64.6621   96.8547    7.5163 C.ar    1  UNL1        0.0293
     45 C          64.9489   96.8037    8.9878 C.ar    1  UNL1       -0.0011
@<TRIPOS>BOND
     1     7     8    1
     2     8     6    1
     3     6     9    1
     4     9    10    1
     5     6     5    1
     6     5     4    1
     7     4     1    1
     8     1    11    1
     9    11    12    1
    10    12    13   ar
    11    13    14   ar
    12    14    15   ar
    13    15    18    1
    14    18    19   ar
    15    19    20   ar
    16    20    21   ar
    17    21    24    1
    18    24    25    1
    19    24    26    1
    20    24    27    1
    21    21    22   ar
    22    22    23   ar
    23    15    16   ar
    24    16    17   ar
    25     1     2   am
    26     2     3    2
    27     2    28    1
    28    28    29    1
    29    29    30   ar
    30    30    31   ar
    31    31    32    1
    32    31    33   ar
    33    33    34    2
    34    33    35   ar
    35    35    36   ar
    36    36    37    1
    37    37    38    1
    38    38    39    1
    39    39    40   ar
    40    40    41   ar
    41    41    42   ar
    42    42    43    1
    43    42    44   ar
    44    44    45   ar
    45    17    12   ar
    46    36    29   ar
    47    45    39   ar
    48    23    18   ar
@<TRIPOS>MOLECULE
*****
 45 48 0 0 0
SMALL
GASTEIGER

@<TRIPOS>ATOM
      1 N          60.0273   89.0467    9.1096 N.am    1  UNL1       -0.2724
      2 C          59.8615   87.8737   10.0297 C.2     1  UNL1        0.2491
      3 O          59.9243   88.0711   11.5153 O.2     1  UNL1       -0.2727
      4 C          59.9645   88.8493    7.6240 C.3     1  UNL1        0.1111
      5 C          58.8670   89.4908    6.8279 C.3     1  UNL1        0.0939
      6 N          59.2006   90.4902    5.7602 N.3     1  UNL1       -0.2712
      7 C          56.7054   90.9268    5.1828 C.3     1  UNL1        0.0188
      8 C          58.1317   91.3902    5.2148 C.3     1  UNL1        0.0722
      9 C          60.6032   90.5895    5.2378 C.3     1  UNL1        0.0722
     10 C          60.9787   91.7017    4.3039 C.3     1  UNL1        0.0188
     11 C          60.2560   90.4171    9.6751 C.3     1  UNL1        0.1202
     12 C          61.4606   90.6852   10.5278 C.ar    1  UNL1       -0.0023
     13 C          62.6952   91.2785    9.9165 C.ar    1  UNL1       -0.0026
     14 C          63.8997   91.5466   10.7692 C.ar    1  UNL1       -0.0003
     15 C          63.8697   91.2214   12.2332 C.ar    1  UNL1       -0.0000
     16 C          62.6352   90.6280   12.8445 C.ar    1  UNL1       -0.0003
     17 C          61.4306   90.3599   11.9918 C.ar    1  UNL1       -0.0026
     18 C          65.0744   91.4895   13.0859 C.ar    1  UNL1       -0.0000
     19 C          65.1981   90.8430   14.4338 C.ar    1  UNL1       -0.0001
     20 C          66.4027   91.1111   15.2865 C.ar    1  UNL1        0.0039
     21 C          67.4836   92.0257   14.7912 C.ar    1  UNL1        0.0714
     22 C          67.3598   92.6722   13.4433 C.ar    1  UNL1        0.0039
     23 C          66.1552   92.4040   12.5907 C.ar    1  UNL1       -0.0001
     24 C          68.6882   92.2938   15.6439 C.3     1  UNL1        0.4186
     25 F          69.8928   92.5620   16.4965 F       1  UNL1       -0.1659
     26 F          69.5303   92.4328   14.4104 F       1  UNL1       -0.1659
     27 F          67.8461   92.1549   16.8773 F       1  UNL1       -0.1659
     28 C          59.6328   86.5033    9.4642 C.3     1  UNL1        0.1934
     29 N          60.6829   85.8610    8.6070 N.ar    1  UNL1       -0.2969
     30 C          60.3889   85.5466    7.1700 C.ar    1  UNL1        0.0942
     31 C          61.4390   84.9042    6.3129 C.ar    1  UNL1        0.1326
     32 CL         61.1450   84.5898    4.8760 Cl      1  UNL1       -0.0756
     33 C          62.7830   84.5762    6.8927 C.ar    1  UNL1        0.2930
     34 O          63.8330   83.9338    6.0355 O.2     1  UNL1       -0.2641
     35 N          63.0769   84.8906    8.3296 N.ar    1  UNL1       -0.1837
     36 C          62.0269   85.5330    9.1867 C.ar    1  UNL1        0.1751
     37 S          62.3208   85.8474   10.6236 S.3     1  UNL1       -0.0724
     38 C          62.8556   84.7792   11.5309 C.3     1  UNL1        0.0913
     39 C          63.0867   85.0752   12.9831 C.ar    1  UNL1       -0.0108
     40 C          63.8901   86.2763   13.3852 C.ar    1  UNL1       -0.0011
     41 C          64.1212   86.5723   14.8375 C.ar    1  UNL1        0.0293
     42 C          63.5487   85.6671   15.8877 C.ar    1  UNL1        0.1401
     43 F          63.7798   85.9630   17.3399 F       1  UNL1       -0.2042
     44 C          62.7453   84.4659   15.4856 C.ar    1  UNL1        0.0293
     45 C          62.5142   84.1700   14.0333 C.ar    1  UNL1       -0.0011
@<TRIPOS>BOND
     1     7     8    1
     2     8     6    1
     3     6     9    1
     4     9    10    1
     5     6     5    1
     6     5     4    1
     7     4     1    1
     8     1    11    1
     9    11    12    1
    10    12    13   ar
    11    13    14   ar
    12    14    15   ar
    13    15    18    1
    14    18    19   ar
    15    19    20   ar
    16    20    21   ar
    17    21    24    1
    18    24    25    1
    19    24    26    1
    20    24    27    1
    21    21    22   ar
    22    22    23   ar
    23    15    16   ar
    24    16    17   ar
    25     1     2   am
    26     2     3    2
    27     2    28    1
    28    28    29    1
    29    29    30   ar
    30    30    31   ar
    31    31    32    1
    32    31    33   ar
    33    33    34    2
    34    33    35   ar
    35    35    36   ar
    36    36    37    1
    37    37    38    1
    38    38    39    1
    39    39    40   ar
    40    40    41   ar
    41    41    42   ar
    42    42    43    1
    43    42    44   ar
    44    44    45   ar
    45    17    12   ar
    46    36    29   ar
    47    45    39   ar
    48    23    18   ar
