@<TRIPOS>MOLECULE
*****
 39 43 0 0 0
SMALL
GASTEIGER

@<TRIPOS>ATOM
      1 N          63.8616   88.9680   15.5536 N.ar    1  UNL1       -0.2716
      2 C          63.3100   89.4151   16.8749 C.ar    1  UNL1        0.2649
      3 O          63.3230   90.8701   17.2395 O.2     1  UNL1       -0.2666
      4 C          62.7455   88.4072   17.8317 C.ar    1  UNL1        0.0611
      5 C          62.7325   86.9522   17.4672 C.ar    1  UNL1        0.0064
      6 C          63.2841   86.5051   16.1458 C.ar    1  UNL1        0.0177
      7 C          63.2711   85.0502   15.7813 C.ar    1  UNL1        0.0216
      8 C          63.8226   84.6031   14.4600 C.ar    1  UNL1        0.1253
      9 C          64.3871   85.6110   13.5032 C.ar    1  UNL1        0.0217
     10 C          64.4001   87.0660   13.8677 C.ar    1  UNL1        0.0190
     11 C          63.8486   87.5130   15.1890 C.ar    1  UNL1        0.0670
     12 C          63.6341   90.3932   13.3933 C.ar    1  UNL1        0.1547
     13 C          64.1986   91.4011   12.4365 C.ar    1  UNL1        0.0384
     14 C          65.5552   91.9917   12.6832 C.ar    1  UNL1        0.0031
     15 C          66.3473   91.5744   13.8867 C.ar    1  UNL1        0.0017
     16 C          65.7828   90.5665   14.8435 C.ar    1  UNL1        0.0207
     17 C          64.4261   89.9759   14.5968 C.ar    1  UNL1        0.1006
     18 C          66.1197   92.9996   11.7264 C.ar    1  UNL1        0.0000
     19 C          65.8433   94.4603   11.9263 C.ar    1  UNL1       -0.0000
     20 C          66.4079   95.4682   10.9695 C.ar    1  UNL1       -0.0001
     21 C          67.2488   95.0154    9.8128 C.ar    1  UNL1        0.0039
     22 C          67.5251   93.5547    9.6130 C.ar    1  UNL1        0.0714
     23 C          66.9606   92.5468   10.5698 C.ar    1  UNL1        0.0039
     24 C          68.3660   93.1018    8.4563 C.3     1  UNL1        0.4186
     25 F          69.2069   92.6490    7.2996 F       1  UNL1       -0.1659
     26 F          67.7940   94.2004    7.6103 F       1  UNL1       -0.1659
     27 F          68.9381   92.0032    9.3022 F       1  UNL1       -0.1659
     28 C          61.8093   89.5598   11.7423 C.3     1  UNL1        0.2525
     29 O          62.2774   89.8027   13.1465 O.3     1  UNL1       -0.4700
     30 S          63.8096   83.1481   14.0954 S.O2    1  UNL1        0.0748
     31 O          63.5403   83.5091   12.6646 O.2     1  UNL1       -0.1499
     32 O          64.0790   82.7872   15.5262 O.2     1  UNL1       -0.1499
     33 N          63.7966   81.6932   13.7308 N.pl3   1  UNL1       -0.1962
     34 H          64.6292   81.2483   13.4514 H       1  UNL1        0.1754
     35 C          62.5150   80.9160   13.7919 C.ar    1  UNL1        0.1893
     36 C          61.1838   81.4448   14.2373 C.ar    1  UNL1        0.0823
     37 C          60.1857   80.3293   14.1390 C.ar    1  UNL1        0.2152
     38 O          60.9001   79.1112   13.6330 O.2     1  UNL1       -0.3489
     39 N          62.3397   79.4739   13.4185 N.ar    1  UNL1       -0.0605
@<TRIPOS>BOND
     1    28    29    1
     2    29    12    1
     3    12    13   ar
     4    13    14   ar
     5    14    18    1
     6    18    19   ar
     7    19    20   ar
     8    20    21   ar
     9    21    22   ar
    10    22    24    1
    11    24    25    1
    12    24    26    1
    13    24    27    1
    14    22    23   ar
    15    14    15   ar
    16    15    16   ar
    17    16    17   ar
    18    17     1    1
    19     1     2   ar
    20     2     3    2
    21     2     4   ar
    22     4     5   ar
    23     5     6   ar
    24     6     7   ar
    25     7     8   ar
    26     8    30    1
    27    30    31    2
    28    30    32    2
    29    30    33    1
    30    33    35    1
    31    35    36   ar
    32    36    37   ar
    33    37    38   ar
    34    38    39   ar
    35     8     9   ar
    36     9    10   ar
    37    10    11   ar
    38    17    12   ar
    39    11     1   ar
    40    23    18   ar
    41    11     6   ar
    42    39    35   ar
    43    33    34    1
@<TRIPOS>MOLECULE
*****
 39 43 0 0 0
SMALL
GASTEIGER

@<TRIPOS>ATOM
      1 N          64.0179   89.4718   15.4171 N.ar    1  UNL1       -0.2716
      2 C          63.4923   90.1673   16.6377 C.ar    1  UNL1        0.2649
      3 O          63.6110   91.6575   16.7614 O.2     1  UNL1       -0.2666
      4 C          62.8480   89.3727   17.7348 C.ar    1  UNL1        0.0611
      5 C          62.7294   87.8825   17.6112 C.ar    1  UNL1        0.0064
      6 C          63.2550   87.1869   16.3905 C.ar    1  UNL1        0.0177
      7 C          63.1363   85.6968   16.2669 C.ar    1  UNL1        0.0216
      8 C          63.6619   85.0012   15.0463 C.ar    1  UNL1        0.1253
      9 C          64.3061   85.7959   13.9492 C.ar    1  UNL1        0.0217
     10 C          64.4248   87.2860   14.0728 C.ar    1  UNL1        0.0190
     11 C          63.8992   87.9815   15.2935 C.ar    1  UNL1        0.0670
     12 C          63.9190   90.5204   13.0421 C.ar    1  UNL1        0.1547
     13 C          64.5633   91.3151   11.9451 C.ar    1  UNL1        0.0384
     14 C          65.9507   91.8557   12.1260 C.ar    1  UNL1        0.0031
     15 C          66.6939   91.6016   13.4040 C.ar    1  UNL1        0.0017
     16 C          66.0497   90.8070   14.5010 C.ar    1  UNL1        0.0207
     17 C          64.6622   90.2664   14.3201 C.ar    1  UNL1        0.1006
     18 C          66.5949   92.6503   11.0289 C.ar    1  UNL1        0.0000
     19 C          67.9817   92.3086   10.5704 C.ar    1  UNL1       -0.0000
     20 C          68.6260   93.1032    9.4733 C.ar    1  UNL1       -0.0001
     21 C          67.8835   94.2395    8.8349 C.ar    1  UNL1        0.0039
     22 C          66.4968   94.5812    9.2934 C.ar    1  UNL1        0.0714
     23 C          65.8525   93.7865   10.3905 C.ar    1  UNL1        0.0039
     24 C          65.7543   95.7175    8.6550 C.3     1  UNL1        0.4186
     25 F          65.0118   96.8537    8.0166 F       1  UNL1       -0.1659
     26 F          65.0772   96.0090    9.9613 F       1  UNL1       -0.1659
     27 F          66.4313   95.4259    7.3486 F       1  UNL1       -0.1659
     28 C          62.1652   89.2623   11.5959 C.3     1  UNL1        0.2525
     29 O          62.5315   89.9798   12.8612 O.3     1  UNL1       -0.4700
     30 S          63.5432   83.5110   14.9226 S.O2    1  UNL1        0.0748
     31 O          62.0480   83.6280   14.9484 O.2     1  UNL1       -0.1499
     32 O          65.0384   83.3940   14.8968 O.2     1  UNL1       -0.1499
     33 N          63.4245   82.0209   14.7990 N.pl3   1  UNL1       -0.1962
     34 H          63.4874   81.4538   15.6013 H       1  UNL1        0.1754
     35 C          63.2098   81.3947   13.4529 C.ar    1  UNL1        0.1893
     36 C          63.5337   82.0194   12.1282 C.ar    1  UNL1        0.0823
     37 C          63.1577   81.0447   11.0518 C.ar    1  UNL1        0.2152
     38 O          62.6015   79.8176   11.7113 O.2     1  UNL1       -0.3489
     39 N          62.6337   80.0339   13.1953 N.ar    1  UNL1       -0.0605
@<TRIPOS>BOND
     1    28    29    1
     2    29    12    1
     3    12    13   ar
     4    13    14   ar
     5    14    18    1
     6    18    19   ar
     7    19    20   ar
     8    20    21   ar
     9    21    22   ar
    10    22    24    1
    11    24    25    1
    12    24    26    1
    13    24    27    1
    14    22    23   ar
    15    14    15   ar
    16    15    16   ar
    17    16    17   ar
    18    17     1    1
    19     1     2   ar
    20     2     3    2
    21     2     4   ar
    22     4     5   ar
    23     5     6   ar
    24     6     7   ar
    25     7     8   ar
    26     8    30    1
    27    30    31    2
    28    30    32    2
    29    30    33    1
    30    33    35    1
    31    35    36   ar
    32    36    37   ar
    33    37    38   ar
    34    38    39   ar
    35     8     9   ar
    36     9    10   ar
    37    10    11   ar
    38    17    12   ar
    39    11     1   ar
    40    23    18   ar
    41    11     6   ar
    42    39    35   ar
    43    33    34    1
@<TRIPOS>MOLECULE
*****
 39 43 0 0 0
SMALL
GASTEIGER

@<TRIPOS>ATOM
      1 N          64.0936   89.5561   14.8104 N.ar    1  UNL1       -0.2716
      2 C          63.6556   89.7722   16.2286 C.ar    1  UNL1        0.2649
      3 O          63.0644   88.6378   17.0122 O.2     1  UNL1       -0.2666
      4 C          63.8088   91.1226   16.8634 C.ar    1  UNL1        0.0611
      5 C          64.3999   92.2569   16.0800 C.ar    1  UNL1        0.0064
      6 C          64.8379   92.0408   14.6616 C.ar    1  UNL1        0.0177
      7 C          65.4291   93.1751   13.8782 C.ar    1  UNL1        0.0216
      8 C          65.8670   92.9590   12.4599 C.ar    1  UNL1        0.1253
      9 C          65.7138   91.6086   11.8251 C.ar    1  UNL1        0.0217
     10 C          65.1227   90.4743   12.6086 C.ar    1  UNL1        0.0190
     11 C          64.6847   90.6904   14.0268 C.ar    1  UNL1        0.0670
     12 C          63.0667   88.0395   12.9677 C.ar    1  UNL1        0.1547
     13 C          62.9135   86.6891   12.3329 C.ar    1  UNL1        0.0384
     14 C          63.6340   85.5049   12.9060 C.ar    1  UNL1        0.0031
     15 C          64.5077   85.6710   14.1140 C.ar    1  UNL1        0.0017
     16 C          64.6609   87.0214   14.7488 C.ar    1  UNL1        0.0207
     17 C          63.9404   88.2057   14.1756 C.ar    1  UNL1        0.1006
     18 C          63.4808   84.1545   12.2712 C.ar    1  UNL1        0.0000
     19 C          64.0158   83.9093   10.8915 C.ar    1  UNL1       -0.0000
     20 C          63.8626   82.5589   10.2567 C.ar    1  UNL1       -0.0001
     21 C          63.1744   81.4537   11.0017 C.ar    1  UNL1        0.0039
     22 C          62.6394   81.6989   12.3813 C.ar    1  UNL1        0.0714
     23 C          62.7926   83.0493   13.0161 C.ar    1  UNL1        0.0039
     24 C          61.9512   80.5937   13.1263 C.3     1  UNL1        0.4186
     25 F          61.2630   79.4885   13.8712 F       1  UNL1       -0.1659
     26 F          62.5462   79.5887   12.1851 F       1  UNL1       -0.1659
     27 F          61.3561   81.5986   14.0676 F       1  UNL1       -0.1659
     28 C          61.9016   89.2099   10.9620 C.3     1  UNL1        0.2525
     29 O          62.3462   89.2238   12.3945 O.3     1  UNL1       -0.4700
     30 S          66.4582   94.0934   11.6764 S.O2    1  UNL1        0.0748
     31 O          66.3707   94.9750   12.8868 O.2     1  UNL1       -0.1499
     32 O          66.5456   93.2118   10.4660 O.2     1  UNL1       -0.1499
     33 N          67.0493   95.2277   10.8929 N.pl3   1  UNL1       -0.1962
     34 H          67.9384   95.5785   11.1292 H       1  UNL1        0.1754
     35 C          66.2859   95.8276    9.7495 C.ar    1  UNL1        0.1893
     36 C          66.7956   96.0157    8.3514 C.ar    1  UNL1        0.0823
     37 C          65.7035   96.6491    7.5412 C.ar    1  UNL1        0.2152
     38 O          64.5189   96.8523    8.4387 O.2     1  UNL1       -0.3489
     39 N          64.8789   96.3446    9.8035 N.ar    1  UNL1       -0.0605
@<TRIPOS>BOND
     1    28    29    1
     2    29    12    1
     3    12    13   ar
     4    13    14   ar
     5    14    18    1
     6    18    19   ar
     7    19    20   ar
     8    20    21   ar
     9    21    22   ar
    10    22    24    1
    11    24    25    1
    12    24    26    1
    13    24    27    1
    14    22    23   ar
    15    14    15   ar
    16    15    16   ar
    17    16    17   ar
    18    17     1    1
    19     1     2   ar
    20     2     3    2
    21     2     4   ar
    22     4     5   ar
    23     5     6   ar
    24     6     7   ar
    25     7     8   ar
    26     8    30    1
    27    30    31    2
    28    30    32    2
    29    30    33    1
    30    33    35    1
    31    35    36   ar
    32    36    37   ar
    33    37    38   ar
    34    38    39   ar
    35     8     9   ar
    36     9    10   ar
    37    10    11   ar
    38    17    12   ar
    39    11     1   ar
    40    23    18   ar
    41    11     6   ar
    42    39    35   ar
    43    33    34    1
@<TRIPOS>MOLECULE
*****
 39 43 0 0 0
SMALL
GASTEIGER

@<TRIPOS>ATOM
      1 N          62.2277   88.0639   10.9948 N.ar    1  UNL1       -0.2716
      2 C          61.4201   88.5380    9.8231 C.ar    1  UNL1        0.2649
      3 O          60.6766   87.5489    8.9752 O.2     1  UNL1       -0.2666
      4 C          61.3560   90.0013    9.4992 C.ar    1  UNL1        0.0611
      5 C          62.0995   90.9903   10.3471 C.ar    1  UNL1        0.0064
      6 C          62.9072   90.5162   11.5188 C.ar    1  UNL1        0.0177
      7 C          63.6507   91.5053   12.3667 C.ar    1  UNL1        0.0216
      8 C          64.4583   91.0312   13.5384 C.ar    1  UNL1        0.1253
      9 C          64.5224   89.5680   13.8622 C.ar    1  UNL1        0.0217
     10 C          63.7789   88.5789   13.0144 C.ar    1  UNL1        0.0190
     11 C          62.9713   89.0530   11.8427 C.ar    1  UNL1        0.0670
     12 C          62.6704   85.6130   10.2551 C.ar    1  UNL1        0.1547
     13 C          62.7345   84.1498   10.5790 C.ar    1  UNL1        0.0384
     14 C          62.4201   83.6743   11.9664 C.ar    1  UNL1        0.0031
     15 C          62.0415   84.6619   13.0300 C.ar    1  UNL1        0.0017
     16 C          61.9774   86.1252   12.7061 C.ar    1  UNL1        0.0207
     17 C          62.2919   86.6007   11.3186 C.ar    1  UNL1        0.1006
     18 C          62.4842   82.2110   12.2902 C.ar    1  UNL1        0.0000
     19 C          62.3063   81.7477   13.7058 C.ar    1  UNL1       -0.0000
     20 C          62.3704   80.2845   14.0296 C.ar    1  UNL1       -0.0001
     21 C          62.6124   79.2846   12.9379 C.ar    1  UNL1        0.0039
     22 C          62.7902   79.7480   11.5225 C.ar    1  UNL1        0.0714
     23 C          62.7261   81.2112   11.1986 C.ar    1  UNL1        0.0039
     24 C          63.0322   78.7481   10.4307 C.3     1  UNL1        0.4186
     25 F          63.2742   77.7482    9.3391 F       1  UNL1       -0.1659
     26 F          62.8965   77.6316   11.4233 F       1  UNL1       -0.1659
     27 F          63.1680   79.8645    9.4382 F       1  UNL1       -0.1659
     28 C          62.8828   85.1414    7.7090 C.3     1  UNL1        0.2525
     29 O          62.9848   86.0886    8.8676 O.3     1  UNL1       -0.4700
     30 S          65.2019   92.0203   14.3863 S.O2    1  UNL1        0.0748
     31 O          65.0007   91.1428   15.5861 O.2     1  UNL1       -0.1499
     32 O          65.4030   92.8977   13.1865 O.2     1  UNL1       -0.1499
     33 N          65.9454   93.0093   15.2342 N.pl3   1  UNL1       -0.1962
     34 H          65.4511   93.6110   15.8365 H       1  UNL1        0.1754
     35 C          67.4421   93.0815   15.1644 C.ar    1  UNL1        0.1893
     36 C          68.3323   93.8458   16.0989 C.ar    1  UNL1        0.0823
     37 C          69.7517   93.6387   15.6600 C.ar    1  UNL1        0.2152
     38 O          69.7386   92.7465   14.4542 O.2     1  UNL1       -0.3489
     39 N          68.3111   92.4021   14.1480 N.ar    1  UNL1       -0.0605
@<TRIPOS>BOND
     1    28    29    1
     2    29    12    1
     3    12    13   ar
     4    13    14   ar
     5    14    18    1
     6    18    19   ar
     7    19    20   ar
     8    20    21   ar
     9    21    22   ar
    10    22    24    1
    11    24    25    1
    12    24    26    1
    13    24    27    1
    14    22    23   ar
    15    14    15   ar
    16    15    16   ar
    17    16    17   ar
    18    17     1    1
    19     1     2   ar
    20     2     3    2
    21     2     4   ar
    22     4     5   ar
    23     5     6   ar
    24     6     7   ar
    25     7     8   ar
    26     8    30    1
    27    30    31    2
    28    30    32    2
    29    30    33    1
    30    33    35    1
    31    35    36   ar
    32    36    37   ar
    33    37    38   ar
    34    38    39   ar
    35     8     9   ar
    36     9    10   ar
    37    10    11   ar
    38    17    12   ar
    39    11     1   ar
    40    23    18   ar
    41    11     6   ar
    42    39    35   ar
    43    33    34    1
