@<TRIPOS>MOLECULE
*****
 42 44 0 0 0
SMALL
GASTEIGER

@<TRIPOS>ATOM
      1 C          63.3969   86.9677   16.2639 C.3     1  UNL1        0.2120
      2 O          63.8005   86.7841   14.8310 O.3     1  UNL1       -0.3763
      3 H          63.1117   86.2876   14.3621 H       1  UNL1        0.2107
      4 C          62.9932   87.1514   17.6968 C.3     1  UNL1        0.4226
      5 F          62.5895   87.3349   19.1298 F       1  UNL1       -0.1675
      6 F          63.3338   88.6093   17.6059 F       1  UNL1       -0.1675
      7 F          62.6526   85.6934   17.7877 F       1  UNL1       -0.1675
      8 C          63.2569   88.4436   16.0353 C.3     1  UNL1        0.1269
      9 C          63.7628   90.4933   14.5212 C.2     1  UNL1        0.2502
     10 O          63.7355   91.3888   15.7243 O.2     1  UNL1       -0.2700
     11 N          63.5236   89.0208   14.6767 N.am    1  UNL1       -0.2982
     12 H          63.5415   88.4330   13.8871 H       1  UNL1        0.1498
     13 N          65.9759   92.7840   13.8108 N.pl3   1  UNL1       -0.3424
     14 C          65.0468   92.1234   12.8360 C.ar    1  UNL1        0.1327
     15 C          64.0295   91.0704   13.1626 C.ar    1  UNL1        0.1053
     16 C          63.3257   90.6960   11.8919 C.ar    1  UNL1        0.1278
     17 N          63.9080   91.5175   10.7801 N.ar    1  UNL1       -0.1622
     18 N          64.9717   92.3997   11.3636 N.ar    1  UNL1       -0.2163
     19 H          65.9498   92.5338   14.7626 H       1  UNL1        0.1437
     20 H          66.6118   93.4677   13.4988 H       1  UNL1        0.1437
     21 C          65.8125   93.3850   10.6075 C.ar    1  UNL1        0.0843
     22 C          67.0647   92.9295    9.9186 C.ar    1  UNL1        0.0215
     23 C          67.9057   93.9149    9.1624 C.ar    1  UNL1        0.0312
     24 C          67.4944   95.3559    9.0951 C.ar    1  UNL1        0.1402
     25 F          68.3354   96.3413    8.3390 F       1  UNL1       -0.2042
     26 C          66.2423   95.8114    9.7840 C.ar    1  UNL1        0.0312
     27 C          65.4013   94.8260   10.5402 C.ar    1  UNL1        0.0215
     28 C          63.5368   85.4919   16.4924 C.3     1  UNL1        0.1308
     29 N          63.7291   84.5674   15.3270 N.am    1  UNL1       -0.2703
     30 C          62.5576   84.1853   14.4715 C.2     1  UNL1        0.2536
     31 O          61.1939   84.7278   14.7815 O.2     1  UNL1       -0.2697
     32 C          62.7498   83.2608   13.3061 C.ar    1  UNL1        0.1083
     33 C          63.2090   83.8041   11.9855 C.ar    1  UNL1        0.1467
     34 F          63.4760   85.2720   11.8304 F       1  UNL1       -0.2039
     35 C          63.4013   82.8796   10.8201 C.ar    1  UNL1        0.0299
     36 C          63.1343   81.4117   10.9752 C.ar    1  UNL1        0.0046
     37 C          62.6751   80.8683   12.2958 C.ar    1  UNL1        0.0299
     38 C          62.4828   81.7929   13.4612 C.ar    1  UNL1        0.1467
     39 F          62.0236   81.2495   14.7818 F       1  UNL1       -0.2039
     40 C          65.0927   84.0249   15.0170 C.3     1  UNL1        0.1319
     41 C          66.1300   84.9132   14.3968 C.3     1  UNL1        0.2146
     42 F          66.6896   86.0683   15.1733 F       1  UNL1       -0.2324
@<TRIPOS>BOND
     1    13    14    1
     2    14    15   ar
     3    15     9    1
     4     9    10    2
     5     9    11   am
     6    11     8    1
     7     8     1    1
     8     1     2    1
     9     1    28    1
    10    28    29    1
    11    29    40    1
    12    40    41    1
    13    41    42    1
    14    29    30   am
    15    30    31    2
    16    30    32    1
    17    32    33   ar
    18    33    34    1
    19    33    35   ar
    20    35    36   ar
    21    36    37   ar
    22    37    38   ar
    23    38    39    1
    24     1     4    1
    25     4     5    1
    26     4     6    1
    27     4     7    1
    28    15    16   ar
    29    16    17   ar
    30    17    18   ar
    31    18    21    1
    32    21    22   ar
    33    22    23   ar
    34    23    24   ar
    35    24    25    1
    36    24    26   ar
    37    26    27   ar
    38    18    14   ar
    39    27    21   ar
    40    38    32   ar
    41    13    19    1
    42    13    20    1
    43    11    12    1
    44     2     3    1
@<TRIPOS>MOLECULE
*****
 42 44 0 0 0
SMALL
GASTEIGER

@<TRIPOS>ATOM
      1 C          63.3027   86.9498   16.4370 C.3     1  UNL1        0.2120
      2 O          63.7134   86.8534   14.9976 O.3     1  UNL1       -0.3763
      3 H          63.0603   86.3279   14.5095 H       1  UNL1        0.2107
      4 C          62.8920   87.0461   17.8764 C.3     1  UNL1        0.4226
      5 F          62.4812   87.1424   19.3159 F       1  UNL1       -0.1675
      6 F          63.3031   88.4885   17.8972 F       1  UNL1       -0.1675
      7 F          62.4809   85.6037   17.8557 F       1  UNL1       -0.1675
      8 C          63.0561   88.4197   16.2683 C.3     1  UNL1        0.1269
      9 C          64.1037   90.7374   15.7382 C.2     1  UNL1        0.2502
     10 O          63.2062   91.3759   16.7565 O.2     1  UNL1       -0.2700
     11 N          64.0286   89.2593   15.4941 N.am    1  UNL1       -0.2982
     12 H          64.6176   88.8403   14.8257 H       1  UNL1        0.1498
     13 N          64.1160   91.1670   12.5033 N.pl3   1  UNL1       -0.3424
     14 C          65.0818   91.7745   13.4771 C.ar    1  UNL1        0.1327
     15 C          65.0761   91.5769   14.9641 C.ar    1  UNL1        0.1053
     16 C          66.2137   92.3665   15.5409 C.ar    1  UNL1        0.1278
     17 N          66.9225   93.0519   14.4104 N.ar    1  UNL1       -0.1622
     18 N          66.2229   92.6860   13.1349 N.ar    1  UNL1       -0.2163
     19 H          63.3963   90.5781   12.8263 H       1  UNL1        0.1437
     20 H          64.2019   91.3573   11.5412 H       1  UNL1        0.1437
     21 C          66.5984   93.1501   11.7589 C.ar    1  UNL1        0.0843
     22 C          66.1199   94.4812   11.2597 C.ar    1  UNL1        0.0215
     23 C          66.4954   94.9455    9.8837 C.ar    1  UNL1        0.0312
     24 C          67.3496   94.0785    9.0068 C.ar    1  UNL1        0.1402
     25 F          67.7252   94.5426    7.6307 F       1  UNL1       -0.2042
     26 C          67.8281   92.7474    9.5060 C.ar    1  UNL1        0.0312
     27 C          67.4526   92.2832   10.8820 C.ar    1  UNL1        0.0215
     28 C          63.5492   85.4799   16.6057 C.3     1  UNL1        0.1308
     29 N          63.7359   84.6074   15.3999 N.am    1  UNL1       -0.2703
     30 C          62.5560   84.2415   14.5490 C.2     1  UNL1        0.2536
     31 O          61.1895   84.7479   14.9039 O.2     1  UNL1       -0.2697
     32 C          62.7427   83.3690   13.3432 C.ar    1  UNL1        0.1083
     33 C          62.5065   81.8911   13.4429 C.ar    1  UNL1        0.1467
     34 F          62.0835   81.2856   14.7485 F       1  UNL1       -0.2039
     35 C          62.6932   81.0187   12.2371 C.ar    1  UNL1        0.0299
     36 C          63.1161   81.6241   10.9316 C.ar    1  UNL1        0.0046
     37 C          63.3524   83.1021   10.8318 C.ar    1  UNL1        0.0299
     38 C          63.1657   83.9745   12.0376 C.ar    1  UNL1        0.1467
     39 F          63.4019   85.4524   11.9378 F       1  UNL1       -0.2039
     40 C          65.1025   84.1009   15.0450 C.3     1  UNL1        0.1319
     41 C          66.0823   85.0052   14.3579 C.3     1  UNL1        0.2146
     42 F          66.7821   86.0811   15.1344 F       1  UNL1       -0.2324
@<TRIPOS>BOND
     1    13    14    1
     2    14    15   ar
     3    15     9    1
     4     9    10    2
     5     9    11   am
     6    11     8    1
     7     8     1    1
     8     1     2    1
     9     1    28    1
    10    28    29    1
    11    29    40    1
    12    40    41    1
    13    41    42    1
    14    29    30   am
    15    30    31    2
    16    30    32    1
    17    32    33   ar
    18    33    34    1
    19    33    35   ar
    20    35    36   ar
    21    36    37   ar
    22    37    38   ar
    23    38    39    1
    24     1     4    1
    25     4     5    1
    26     4     6    1
    27     4     7    1
    28    15    16   ar
    29    16    17   ar
    30    17    18   ar
    31    18    21    1
    32    21    22   ar
    33    22    23   ar
    34    23    24   ar
    35    24    25    1
    36    24    26   ar
    37    26    27   ar
    38    18    14   ar
    39    27    21   ar
    40    38    32   ar
    41    13    19    1
    42    13    20    1
    43    11    12    1
    44     2     3    1
@<TRIPOS>MOLECULE
*****
 42 44 0 0 0
SMALL
GASTEIGER

@<TRIPOS>ATOM
      1 C          61.0023   87.8651    9.1455 C.3     1  UNL1        0.2120
      2 O          62.3310   87.9120    9.8400 O.3     1  UNL1       -0.3763
      3 H          63.0337   87.6913    9.2088 H       1  UNL1        0.2107
      4 C          59.6736   87.8181    8.4510 C.3     1  UNL1        0.4226
      5 F          58.3448   87.7711    7.7565 F       1  UNL1       -0.1675
      6 F          59.7613   89.2914    8.1836 F       1  UNL1       -0.1675
      7 F          59.5859   86.3448    8.7185 F       1  UNL1       -0.1675
      8 C          60.8636   89.3495    9.3104 C.3     1  UNL1        0.1269
      9 C          62.4214   90.3423   11.1373 C.2     1  UNL1        0.2502
     10 O          61.5953   89.6816   12.2008 O.2     1  UNL1       -0.2700
     11 N          62.0556   90.1763    9.6921 N.am    1  UNL1       -0.2982
     12 H          62.5978   90.6100    8.9941 H       1  UNL1        0.1498
     13 N          64.2035   90.0010   13.8497 N.pl3   1  UNL1       -0.3424
     14 C          64.4325   91.0122   12.7658 C.ar    1  UNL1        0.1327
     15 C          63.6133   91.1691   11.5190 C.ar    1  UNL1        0.1053
     16 C          64.1954   92.2980   10.7209 C.ar    1  UNL1        0.1278
     17 N          65.3743   92.8388   11.4745 N.ar    1  UNL1       -0.1622
     18 N          65.5208   92.0441   12.7383 N.ar    1  UNL1       -0.2163
     19 H          63.4583   89.3618   13.7770 H       1  UNL1        0.1437
     20 H          64.7984   89.9765   14.6337 H       1  UNL1        0.1437
     21 C          66.5712   92.2459   13.7899 C.ar    1  UNL1        0.0843
     22 C          66.1841   92.7446   15.1506 C.ar    1  UNL1        0.0215
     23 C          67.2345   92.9464   16.2023 C.ar    1  UNL1        0.0312
     24 C          68.6720   92.6495   15.8932 C.ar    1  UNL1        0.1402
     25 F          69.7224   92.8513   16.9448 F       1  UNL1       -0.2042
     26 C          69.0591   92.1508   14.5325 C.ar    1  UNL1        0.0312
     27 C          68.0087   91.9490   13.4808 C.ar    1  UNL1        0.0215
     28 C          61.1409   86.3806    8.9806 C.3     1  UNL1        0.1308
     29 N          62.0432   85.6055    9.8944 N.am    1  UNL1       -0.2703
     30 C          61.8721   85.7077   11.3812 C.2     1  UNL1        0.2536
     31 O          60.7987   86.5849   11.9540 O.2     1  UNL1       -0.2697
     32 C          62.7744   84.9326   12.2950 C.ar    1  UNL1        0.1083
     33 C          63.7135   85.6570   13.2132 C.ar    1  UNL1        0.1467
     34 F          63.7504   87.1566   13.2177 F       1  UNL1       -0.2039
     35 C          64.6159   84.8819   14.1270 C.ar    1  UNL1        0.0299
     36 C          64.5791   83.3824   14.1226 C.ar    1  UNL1        0.0046
     37 C          63.6399   82.6579   13.2043 C.ar    1  UNL1        0.0299
     38 C          62.7376   83.4330   12.2905 C.ar    1  UNL1        0.1467
     39 F          61.7985   82.7086   11.3722 F       1  UNL1       -0.2039
     40 C          63.1167   84.7283    9.3216 C.3     1  UNL1        0.1319
     41 C          63.4704   84.8285    7.8673 C.3     1  UNL1        0.2146
     42 F          62.4705   84.4289    6.8230 F       1  UNL1       -0.2324
@<TRIPOS>BOND
     1    13    14    1
     2    14    15   ar
     3    15     9    1
     4     9    10    2
     5     9    11   am
     6    11     8    1
     7     8     1    1
     8     1     2    1
     9     1    28    1
    10    28    29    1
    11    29    40    1
    12    40    41    1
    13    41    42    1
    14    29    30   am
    15    30    31    2
    16    30    32    1
    17    32    33   ar
    18    33    34    1
    19    33    35   ar
    20    35    36   ar
    21    36    37   ar
    22    37    38   ar
    23    38    39    1
    24     1     4    1
    25     4     5    1
    26     4     6    1
    27     4     7    1
    28    15    16   ar
    29    16    17   ar
    30    17    18   ar
    31    18    21    1
    32    21    22   ar
    33    22    23   ar
    34    23    24   ar
    35    24    25    1
    36    24    26   ar
    37    26    27   ar
    38    18    14   ar
    39    27    21   ar
    40    38    32   ar
    41    13    19    1
    42    13    20    1
    43    11    12    1
    44     2     3    1
@<TRIPOS>MOLECULE
*****
 42 44 0 0 0
SMALL
GASTEIGER

@<TRIPOS>ATOM
      1 C          63.9109   90.8007   14.4355 C.3     1  UNL1        0.2120
      2 O          62.7318   90.2550   13.6861 O.3     1  UNL1       -0.3763
      3 H          62.9891   90.0689   12.7695 H       1  UNL1        0.2107
      4 C          65.0901   91.3465   15.1849 C.3     1  UNL1        0.4226
      5 F          66.2692   91.8923   15.9344 F       1  UNL1       -0.1675
      6 F          66.0170   90.6713   14.2181 F       1  UNL1       -0.1675
      7 F          64.1631   92.0217   16.1517 F       1  UNL1       -0.1675
      8 C          63.9512   89.5592   15.2762 C.3     1  UNL1        0.1269
      9 C          63.9420   86.9614   15.3126 C.2     1  UNL1        0.2502
     10 O          63.1362   86.9819   16.5776 O.2     1  UNL1       -0.2700
     11 N          64.3495   88.2499   14.6619 N.am    1  UNL1       -0.2982
     12 H          64.8784   88.2364   13.8317 H       1  UNL1        0.1498
     13 N          62.2565   85.3079   13.0600 N.pl3   1  UNL1       -0.3424
     14 C          63.5655   84.8921   13.6628 C.ar    1  UNL1        0.1327
     15 C          64.3403   85.6522   14.6982 C.ar    1  UNL1        0.1053
     16 C          65.5833   84.8732   15.0114 C.ar    1  UNL1        0.1278
     17 N          65.5768   83.6317   14.1696 N.ar    1  UNL1       -0.1622
     18 N          64.3297   83.6434   13.3360 N.ar    1  UNL1       -0.2163
     19 H          61.8306   86.1499   13.3407 H       1  UNL1        0.1437
     20 H          61.8231   84.7387   12.3836 H       1  UNL1        0.1437
     21 C          63.9189   82.5912   12.3492 C.ar    1  UNL1        0.0843
     22 C          63.2662   81.3283   12.8275 C.ar    1  UNL1        0.0215
     23 C          62.8554   80.2760   11.8406 C.ar    1  UNL1        0.0312
     24 C          63.0974   80.4867   10.3753 C.ar    1  UNL1        0.1402
     25 F          62.6866   79.4345    9.3883 F       1  UNL1       -0.2042
     26 C          63.7501   81.7497    9.8969 C.ar    1  UNL1        0.0312
     27 C          64.1609   82.8019   10.8839 C.ar    1  UNL1        0.0215
     28 C          63.8706   92.0423   13.5947 C.3     1  UNL1        0.1308
     29 N          64.7196   92.1412   12.3621 N.am    1  UNL1       -0.2703
     30 C          65.8342   93.1431   12.2975 C.2     1  UNL1        0.2536
     31 O          66.0997   94.0459   13.4655 O.2     1  UNL1       -0.2697
     32 C          66.6831   93.2420   11.0648 C.ar    1  UNL1        0.1083
     33 C          67.8415   92.3082   10.8750 C.ar    1  UNL1        0.1467
     34 F          68.1510   91.2753   11.9179 F       1  UNL1       -0.2039
     35 C          68.6905   92.4071    9.6423 C.ar    1  UNL1        0.0299
     36 C          68.3811   93.4399    8.5995 C.ar    1  UNL1        0.0046
     37 C          67.2226   94.3738    8.7893 C.ar    1  UNL1        0.0299
     38 C          66.3737   94.2749   10.0219 C.ar    1  UNL1        0.1467
     39 F          65.2153   95.2087   10.2117 F       1  UNL1       -0.2039
     40 C          64.4540   91.2384   11.1940 C.3     1  UNL1        0.1319
     41 C          63.1922   91.3934   10.3980 C.3     1  UNL1        0.2146
     42 F          62.4735   90.1797    9.8876 F       1  UNL1       -0.2324
@<TRIPOS>BOND
     1    13    14    1
     2    14    15   ar
     3    15     9    1
     4     9    10    2
     5     9    11   am
     6    11     8    1
     7     8     1    1
     8     1     2    1
     9     1    28    1
    10    28    29    1
    11    29    40    1
    12    40    41    1
    13    41    42    1
    14    29    30   am
    15    30    31    2
    16    30    32    1
    17    32    33   ar
    18    33    34    1
    19    33    35   ar
    20    35    36   ar
    21    36    37   ar
    22    37    38   ar
    23    38    39    1
    24     1     4    1
    25     4     5    1
    26     4     6    1
    27     4     7    1
    28    15    16   ar
    29    16    17   ar
    30    17    18   ar
    31    18    21    1
    32    21    22   ar
    33    22    23   ar
    34    23    24   ar
    35    24    25    1
    36    24    26   ar
    37    26    27   ar
    38    18    14   ar
    39    27    21   ar
    40    38    32   ar
    41    13    19    1
    42    13    20    1
    43    11    12    1
    44     2     3    1
@<TRIPOS>MOLECULE
*****
 42 44 0 0 0
SMALL
GASTEIGER

@<TRIPOS>ATOM
      1 C          61.3984   87.0939    9.2630 C.3     1  UNL1        0.2120
      2 O          62.7684   87.3506    9.8172 O.3     1  UNL1       -0.3763
      3 H          63.4337   87.1508    9.1401 H       1  UNL1        0.2107
      4 C          60.0284   86.8372    8.7089 C.3     1  UNL1        0.4226
      5 F          58.6583   86.5805    8.1547 F       1  UNL1       -0.1675
      6 F          59.4344   87.7133    9.7717 F       1  UNL1       -0.1675
      7 F          60.6224   85.9612    7.6461 F       1  UNL1       -0.1675
      8 C          61.1007   88.5630    9.3186 C.3     1  UNL1        0.1269
      9 C          62.4624   89.8176   11.1413 C.2     1  UNL1        0.2502
     10 O          61.6642   89.1314   12.2099 O.2     1  UNL1       -0.2700
     11 N          62.1807   89.5334    9.6957 N.am    1  UNL1       -0.2982
     12 H          62.7046   89.9837    8.9943 H       1  UNL1        0.1498
     13 N          64.3494   89.6504   13.7984 N.pl3   1  UNL1       -0.3424
     14 C          64.4097   90.7111   12.7396 C.ar    1  UNL1        0.1327
     15 C          63.5423   90.7879   11.5182 C.ar    1  UNL1        0.1053
     16 C          63.9445   92.0056   10.7399 C.ar    1  UNL1        0.1278
     17 N          65.0605   92.6813   11.4804 N.ar    1  UNL1       -0.1622
     18 N          65.3480   91.8812   12.7163 N.ar    1  UNL1       -0.2163
     19 H          63.6953   88.9182   13.7250 H       1  UNL1        0.1437
     20 H          64.9638   89.6863   14.5668 H       1  UNL1        0.1437
     21 C          66.3906   92.1959   13.7476 C.ar    1  UNL1        0.0843
     22 C          67.8438   92.0092   13.4263 C.ar    1  UNL1        0.0215
     23 C          68.8866   92.3239   14.4576 C.ar    1  UNL1        0.0312
     24 C          68.4760   92.8255   15.8104 C.ar    1  UNL1        0.1402
     25 F          69.5187   93.1403   16.8418 F       1  UNL1       -0.2042
     26 C          67.0228   93.0123   16.1317 C.ar    1  UNL1        0.0312
     27 C          65.9801   92.6975   15.1003 C.ar    1  UNL1        0.0215
     28 C          61.6961   85.6248    9.2074 C.3     1  UNL1        0.1308
     29 N          62.4856   84.9774   10.3064 N.am    1  UNL1       -0.2703
     30 C          62.1011   85.2024   11.7388 C.2     1  UNL1        0.2536
     31 O          60.9273   86.0746   12.0722 O.2     1  UNL1       -0.2697
     32 C          62.8905   84.5549   12.8377 C.ar    1  UNL1        0.1083
     33 C          62.6949   83.0998   13.1447 C.ar    1  UNL1        0.1467
     34 F          61.7099   82.2920   12.3527 F       1  UNL1       -0.2039
     35 C          63.4843   82.4524   14.2437 C.ar    1  UNL1        0.0299
     36 C          64.4693   83.2601   15.0357 C.ar    1  UNL1        0.0046
     37 C          64.6649   84.7154   14.7287 C.ar    1  UNL1        0.0299
     38 C          63.8755   85.3628   13.6298 C.ar    1  UNL1        0.1467
     39 F          64.0711   86.8179   13.3228 F       1  UNL1       -0.2039
     40 C          63.6594   84.1051    9.9730 C.3     1  UNL1        0.1319
     41 C          63.7852   82.7466   10.5964 C.3     1  UNL1        0.2146
     42 F          63.2577   81.5400    9.8780 F       1  UNL1       -0.2324
@<TRIPOS>BOND
     1    13    14    1
     2    14    15   ar
     3    15     9    1
     4     9    10    2
     5     9    11   am
     6    11     8    1
     7     8     1    1
     8     1     2    1
     9     1    28    1
    10    28    29    1
    11    29    40    1
    12    40    41    1
    13    41    42    1
    14    29    30   am
    15    30    31    2
    16    30    32    1
    17    32    33   ar
    18    33    34    1
    19    33    35   ar
    20    35    36   ar
    21    36    37   ar
    22    37    38   ar
    23    38    39    1
    24     1     4    1
    25     4     5    1
    26     4     6    1
    27     4     7    1
    28    15    16   ar
    29    16    17   ar
    30    17    18   ar
    31    18    21    1
    32    21    22   ar
    33    22    23   ar
    34    23    24   ar
    35    24    25    1
    36    24    26   ar
    37    26    27   ar
    38    18    14   ar
    39    27    21   ar
    40    38    32   ar
    41    13    19    1
    42    13    20    1
    43    11    12    1
    44     2     3    1
@<TRIPOS>MOLECULE
*****
 42 44 0 0 0
SMALL
GASTEIGER

@<TRIPOS>ATOM
      1 C          63.7218   87.1182   15.9957 C.3     1  UNL1        0.2120
      2 O          64.2346   87.0646   14.5872 O.3     1  UNL1       -0.3763
      3 H          63.6403   86.5204   14.0472 H       1  UNL1        0.2107
      4 C          63.2090   87.1718   17.4043 C.3     1  UNL1        0.4226
      5 F          62.6961   87.2255   18.8129 F       1  UNL1       -0.1675
      6 F          63.7662   85.8028   17.6593 F       1  UNL1       -0.1675
      7 F          62.6517   88.5409   17.1493 F       1  UNL1       -0.1675
      8 C          63.4237   88.5791   15.8316 C.3     1  UNL1        0.1269
      9 C          64.4289   90.9302   15.3716 C.2     1  UNL1        0.2502
     10 O          63.5250   91.5204   16.4131 O.2     1  UNL1       -0.2700
     11 N          64.3782   89.4596   15.0808 N.am    1  UNL1       -0.2982
     12 H          64.9715   89.0723   14.3973 H       1  UNL1        0.1498
     13 N          64.2229   91.7292   12.2143 N.pl3   1  UNL1       -0.3424
     14 C          65.2887   92.1780   13.1696 C.ar    1  UNL1        0.1327
     15 C          65.3834   91.8107   14.6209 C.ar    1  UNL1        0.1053
     16 C          66.6002   92.4785   15.1896 C.ar    1  UNL1        0.1278
     17 N          67.2576   93.2586   14.0897 N.ar    1  UNL1       -0.1622
     18 N          66.4470   93.0728   12.8413 N.ar    1  UNL1       -0.2163
     19 H          63.4995   91.1386   12.5260 H       1  UNL1        0.1437
     20 H          64.2467   92.0253   11.2757 H       1  UNL1        0.1437
     21 C          66.7428   93.6759   11.5002 C.ar    1  UNL1        0.0843
     22 C          66.3017   95.0765   11.1940 C.ar    1  UNL1        0.0215
     23 C          66.5975   95.6797    9.8528 C.ar    1  UNL1        0.0312
     24 C          67.3344   94.8822    8.8178 C.ar    1  UNL1        0.1402
     25 F          67.6302   95.4853    7.4767 F       1  UNL1       -0.2042
     26 C          67.7754   93.4816    9.1241 C.ar    1  UNL1        0.0312
     27 C          67.4796   92.8784   10.4653 C.ar    1  UNL1        0.0215
     28 C          64.0199   85.6574   16.1599 C.3     1  UNL1        0.1308
     29 N          63.5035   84.6691   15.1565 N.am    1  UNL1       -0.2703
     30 C          64.4161   84.1331   14.0935 C.2     1  UNL1        0.2536
     31 O          65.8450   84.5853   14.0339 O.2     1  UNL1       -0.2697
     32 C          63.8997   83.1449   13.0902 C.ar    1  UNL1        0.1083
     33 C          63.5599   83.5952   11.7003 C.ar    1  UNL1        0.1467
     34 F          63.7366   85.0337   11.3138 F       1  UNL1       -0.2039
     35 C          63.0435   82.6069   10.6970 C.ar    1  UNL1        0.0299
     36 C          62.8669   81.1684   11.0835 C.ar    1  UNL1        0.0046
     37 C          63.2067   80.7181   12.4734 C.ar    1  UNL1        0.0299
     38 C          63.7231   81.7063   13.4768 C.ar    1  UNL1        0.1467
     39 F          64.0628   81.2560   14.8666 F       1  UNL1       -0.2039
     40 C          62.0746   84.2169   15.2161 C.3     1  UNL1        0.1319
     41 C          60.9741   85.2257   15.3620 C.3     1  UNL1        0.2146
     42 F          60.7080   85.8577   16.6962 F       1  UNL1       -0.2324
@<TRIPOS>BOND
     1    13    14    1
     2    14    15   ar
     3    15     9    1
     4     9    10    2
     5     9    11   am
     6    11     8    1
     7     8     1    1
     8     1     2    1
     9     1    28    1
    10    28    29    1
    11    29    40    1
    12    40    41    1
    13    41    42    1
    14    29    30   am
    15    30    31    2
    16    30    32    1
    17    32    33   ar
    18    33    34    1
    19    33    35   ar
    20    35    36   ar
    21    36    37   ar
    22    37    38   ar
    23    38    39    1
    24     1     4    1
    25     4     5    1
    26     4     6    1
    27     4     7    1
    28    15    16   ar
    29    16    17   ar
    30    17    18   ar
    31    18    21    1
    32    21    22   ar
    33    22    23   ar
    34    23    24   ar
    35    24    25    1
    36    24    26   ar
    37    26    27   ar
    38    18    14   ar
    39    27    21   ar
    40    38    32   ar
    41    13    19    1
    42    13    20    1
    43    11    12    1
    44     2     3    1
@<TRIPOS>MOLECULE
*****
 42 44 0 0 0
SMALL
GASTEIGER

@<TRIPOS>ATOM
      1 C          58.8850   94.0211    0.0025 C.3     1  UNL1        0.2120
      2 O          57.9802   92.8260   -0.0498 O.3     1  UNL1       -0.3763
      3 H          57.9241   92.5026   -0.9626 H       1  UNL1        0.2107
      4 C          59.7899   95.2163    0.0548 C.3     1  UNL1        0.4226
      5 F          60.6949   96.4115    0.1071 F       1  UNL1       -0.1675
      6 F          58.6059   96.1016    0.3086 F       1  UNL1       -0.1675
      7 F          60.9739   94.3310   -0.1989 F       1  UNL1       -0.1675
      8 C          59.8806   93.2325    0.8006 C.3     1  UNL1        0.1269
      9 C          59.4179   92.7352    3.3083 C.2     1  UNL1        0.2502
     10 O          59.8985   94.1094    3.6695 O.2     1  UNL1       -0.2700
     11 N          59.4089   92.2967    1.8739 N.am    1  UNL1       -0.2982
     12 H          59.0935   91.3947    1.6368 H       1  UNL1        0.1498
     13 N          61.3092   90.8031    5.1356 N.pl3   1  UNL1       -0.3424
     14 C          59.8156   90.9113    5.2215 C.ar    1  UNL1        0.1327
     15 C          58.9462   91.7994    4.3815 C.ar    1  UNL1        0.1053
     16 C          57.5224   91.5875    4.8033 C.ar    1  UNL1        0.1278
     17 N          57.5118   90.5683    5.9039 N.ar    1  UNL1       -0.1622
     18 N          58.9291   90.1504    6.1624 N.ar    1  UNL1       -0.2163
     19 H          61.8053   91.3468    4.4818 H       1  UNL1        0.1437
     20 H          61.7933   90.1883    5.7330 H       1  UNL1        0.1437
     21 C          59.3806   89.1478    7.1825 C.ar    1  UNL1        0.0843
     22 C          59.0330   87.6983    7.0145 C.ar    1  UNL1        0.0215
     23 C          59.4845   86.6955    8.0346 C.ar    1  UNL1        0.0312
     24 C          60.2836   87.1424    9.2229 C.ar    1  UNL1        0.1402
     25 F          60.7350   86.1397   10.2431 F       1  UNL1       -0.2042
     26 C          60.6311   88.5918    9.3909 C.ar    1  UNL1        0.0312
     27 C          60.1796   89.5945    8.3707 C.ar    1  UNL1        0.0215
     28 C          57.8895   94.8098   -0.7955 C.3     1  UNL1        0.1308
     29 N          57.7203   94.5394   -2.2612 N.am    1  UNL1       -0.2703
     30 C          56.5676   93.7089   -2.7425 C.2     1  UNL1        0.2536
     31 O          55.5842   93.1487   -1.7581 O.2     1  UNL1       -0.2697
     32 C          56.3983   93.4385   -4.2082 C.ar    1  UNL1        0.1083
     33 C          55.6176   94.3934   -5.0617 C.ar    1  UNL1        0.1467
     34 F          55.0061   95.6188   -4.4495 F       1  UNL1       -0.2039
     35 C          55.4483   94.1231   -6.5274 C.ar    1  UNL1        0.0299
     36 C          56.0598   92.8978   -7.1396 C.ar    1  UNL1        0.0046
     37 C          56.8406   91.9428   -6.2860 C.ar    1  UNL1        0.0299
     38 C          57.0098   92.2132   -4.8203 C.ar    1  UNL1        0.1467
     39 F          57.7906   91.2583   -3.9668 F       1  UNL1       -0.2039
     40 C          58.7036   95.0996   -3.2457 C.3     1  UNL1        0.1319
     41 C          59.9293   94.3155   -3.6102 C.3     1  UNL1        0.2146
     42 F          60.3081   93.1024   -2.8133 F       1  UNL1       -0.2324
@<TRIPOS>BOND
     1    13    14    1
     2    14    15   ar
     3    15     9    1
     4     9    10    2
     5     9    11   am
     6    11     8    1
     7     8     1    1
     8     1     2    1
     9     1    28    1
    10    28    29    1
    11    29    40    1
    12    40    41    1
    13    41    42    1
    14    29    30   am
    15    30    31    2
    16    30    32    1
    17    32    33   ar
    18    33    34    1
    19    33    35   ar
    20    35    36   ar
    21    36    37   ar
    22    37    38   ar
    23    38    39    1
    24     1     4    1
    25     4     5    1
    26     4     6    1
    27     4     7    1
    28    15    16   ar
    29    16    17   ar
    30    17    18   ar
    31    18    21    1
    32    21    22   ar
    33    22    23   ar
    34    23    24   ar
    35    24    25    1
    36    24    26   ar
    37    26    27   ar
    38    18    14   ar
    39    27    21   ar
    40    38    32   ar
    41    13    19    1
    42    13    20    1
    43    11    12    1
    44     2     3    1
@<TRIPOS>MOLECULE
*****
 42 44 0 0 0
SMALL
GASTEIGER

@<TRIPOS>ATOM
      1 C          59.4349   93.1265   -0.5387 C.3     1  UNL1        0.2120
      2 O          58.1031   92.5929   -0.1011 O.3     1  UNL1       -0.3763
      3 H          58.0453   91.6494   -0.3192 H       1  UNL1        0.2107
      4 C          60.7667   93.6601   -0.9763 C.3     1  UNL1        0.4226
      5 F          62.0986   94.1938   -1.4139 F       1  UNL1       -0.1675
      6 F          60.8104   92.6457   -2.0804 F       1  UNL1       -0.1675
      7 F          60.7230   94.6745    0.1277 F       1  UNL1       -0.1675
      8 C          59.8237   93.3322    0.8953 C.3     1  UNL1        0.1269
      9 C          59.3396   92.7681    3.3848 C.2     1  UNL1        0.2502
     10 O          59.7612   94.1522    3.7804 O.2     1  UNL1       -0.2700
     11 N          59.3708   92.3581    1.9423 N.am    1  UNL1       -0.2982
     12 H          59.0940   91.4497    1.6827 H       1  UNL1        0.1498
     13 N          61.2721   90.8557    5.1896 N.pl3   1  UNL1       -0.3424
     14 C          59.7750   90.9150    5.2614 C.ar    1  UNL1        0.1327
     15 C          58.8867   91.7941    4.4317 C.ar    1  UNL1        0.1053
     16 C          57.4660   91.5280    4.8329 C.ar    1  UNL1        0.1278
     17 N          57.4763   90.4845    5.9105 N.ar    1  UNL1       -0.1622
     18 N          58.9034   90.1056    6.1752 N.ar    1  UNL1       -0.2163
     19 H          61.7575   91.4294    4.5536 H       1  UNL1        0.1437
     20 H          61.7693   90.2431    5.7785 H       1  UNL1        0.1437
     21 C          59.3758   89.0950    7.1778 C.ar    1  UNL1        0.0843
     22 C          59.0865   87.6382    6.9676 C.ar    1  UNL1        0.0215
     23 C          59.5589   86.6274    7.9702 C.ar    1  UNL1        0.0312
     24 C          60.3206   87.0734    9.1830 C.ar    1  UNL1        0.1402
     25 F          60.7931   86.0627   10.1856 F       1  UNL1       -0.2042
     26 C          60.6099   88.5302    9.3932 C.ar    1  UNL1        0.0312
     27 C          60.1374   89.5410    8.3906 C.ar    1  UNL1        0.0215
     28 C          59.0462   92.9208   -1.9728 C.3     1  UNL1        0.1308
     29 N          58.0700   93.8535   -2.6264 N.am    1  UNL1       -0.2703
     30 C          56.6555   93.4138   -2.8626 C.2     1  UNL1        0.2536
     31 O          56.2171   92.0414   -2.4450 O.2     1  UNL1       -0.2697
     32 C          55.6794   94.3465   -3.5162 C.ar    1  UNL1        0.1083
     33 C          55.6012   94.4224   -5.0122 C.ar    1  UNL1        0.1467
     34 F          56.4993   93.5657   -5.8547 F       1  UNL1       -0.2039
     35 C          54.6251   95.3551   -5.6659 C.ar    1  UNL1        0.0299
     36 C          53.7271   96.2119   -4.8236 C.ar    1  UNL1        0.0046
     37 C          53.8052   96.1359   -3.3275 C.ar    1  UNL1        0.0299
     38 C          54.7813   95.2032   -2.6738 C.ar    1  UNL1        0.1467
     39 F          54.8595   95.1273   -1.1778 F       1  UNL1       -0.2039
     40 C          58.5084   95.2259   -3.0440 C.3     1  UNL1        0.1319
     41 C          58.3248   96.3875   -2.1129 C.3     1  UNL1        0.2146
     42 F          57.7017   96.1769   -0.7647 F       1  UNL1       -0.2324
@<TRIPOS>BOND
     1    13    14    1
     2    14    15   ar
     3    15     9    1
     4     9    10    2
     5     9    11   am
     6    11     8    1
     7     8     1    1
     8     1     2    1
     9     1    28    1
    10    28    29    1
    11    29    40    1
    12    40    41    1
    13    41    42    1
    14    29    30   am
    15    30    31    2
    16    30    32    1
    17    32    33   ar
    18    33    34    1
    19    33    35   ar
    20    35    36   ar
    21    36    37   ar
    22    37    38   ar
    23    38    39    1
    24     1     4    1
    25     4     5    1
    26     4     6    1
    27     4     7    1
    28    15    16   ar
    29    16    17   ar
    30    17    18   ar
    31    18    21    1
    32    21    22   ar
    33    22    23   ar
    34    23    24   ar
    35    24    25    1
    36    24    26   ar
    37    26    27   ar
    38    18    14   ar
    39    27    21   ar
    40    38    32   ar
    41    13    19    1
    42    13    20    1
    43    11    12    1
    44     2     3    1
