@<TRIPOS>MOLECULE
*****
 41 46 0 0 0
SMALL
GASTEIGER

@<TRIPOS>ATOM
      1 N          62.3085   85.9388   10.7419 N.am    1  UNL1       -0.1909
      2 C          62.4481   87.2007   11.5409 C.2     1  UNL1        0.3173
      3 O          63.2155   87.3535   12.8205 O.2     1  UNL1       -0.2516
      4 N          61.6855   88.2828   10.8355 N.am    1  UNL1       -0.2544
      5 C          61.0745   87.6898    9.6005 C.3     1  UNL1        0.1341
      6 C          60.5300   86.9609    8.4079 C.3     1  UNL1        0.0446
      7 C          59.6828   87.6888    7.4067 C.3     1  UNL1        0.0745
      8 N          59.3802   89.1454    7.5980 N.3     1  UNL1       -0.2688
      9 C          59.9247   89.8742    8.7906 C.3     1  UNL1        0.0745
     10 C          60.7718   89.1464    9.7918 C.3     1  UNL1        0.0446
     11 C          61.4595   86.2412    9.5426 C.2     1  UNL1        0.2525
     12 O          61.0650   85.2660    8.4733 O.2     1  UNL1       -0.2724
     13 C          63.2121   82.6327   12.7424 C.ar    1  UNL1        0.1400
     14 C          64.1184   81.9475   11.7630 C.ar    1  UNL1        0.0370
     15 C          64.4214   82.5928   10.4433 C.ar    1  UNL1        0.0044
     16 C          63.8181   83.9233   10.1029 C.ar    1  UNL1        0.0156
     17 C          62.9118   84.6084   11.0822 C.ar    1  UNL1        0.0652
     18 C          62.6088   83.9631   12.4020 C.ar    1  UNL1        0.0522
     19 C          61.6111   81.2625   14.2622 C.3     1  UNL1        0.2525
     20 O          62.9091   81.9874   14.0622 O.3     1  UNL1       -0.4714
     21 C          61.5564   89.7077   11.2860 C.3     1  UNL1        0.1243
     22 C          62.7857   90.5368   11.5127 C.ar    1  UNL1        0.0252
     23 C          63.4427   91.2349   10.3590 C.ar    1  UNL1       -0.0004
     24 C          64.6720   92.0641   10.5856 C.ar    1  UNL1       -0.0001
     25 C          65.2443   92.1952   11.9660 C.ar    1  UNL1        0.0023
     26 C          64.5873   91.4971   13.1196 C.ar    1  UNL1        0.0294
     27 C          63.3580   90.6679   12.8930 C.ar    1  UNL1        0.1377
     28 F          62.7010   89.9698   14.0467 F       1  UNL1       -0.2044
     29 C          58.5329   89.8732    6.5967 C.3     1  UNL1        0.0991
     30 C          59.1802   90.7163    5.5383 C.ar    1  UNL1       -0.0061
     31 C          60.6523   90.5935    5.2778 C.ar    1  UNL1       -0.0029
     32 C          61.2995   91.4366    4.2193 C.ar    1  UNL1       -0.0003
     33 C          60.4747   92.4025    3.4214 C.ar    1  UNL1        0.0001
     34 C          59.0026   92.5253    3.6819 C.ar    1  UNL1       -0.0003
     35 C          58.3553   91.6822    4.7403 C.ar    1  UNL1       -0.0029
     36 C          61.1219   93.2455    2.3630 C.ar    1  UNL1        0.0031
     37 C          60.4198   94.4641    1.8413 C.ar    1  UNL1        0.0207
     38 C          61.0671   95.3072    0.7829 C.ar    1  UNL1        0.0989
     39 N          62.4165   94.9317    0.2462 N.ar    1  UNL1       -0.2423
     40 C          63.1186   93.7132    0.7679 C.ar    1  UNL1        0.0989
     41 C          62.4714   92.8701    1.8263 C.ar    1  UNL1        0.0207
@<TRIPOS>BOND
     1    19    20    1
     2    20    13    1
     3    13    14   ar
     4    14    15   ar
     5    15    16   ar
     6    16    17   ar
     7    17     1    1
     8     1     2   am
     9     2     3    2
    10     2     4   am
    11     4    21    1
    12    21    22    1
    13    22    23   ar
    14    23    24   ar
    15    24    25   ar
    16    25    26   ar
    17    26    27   ar
    18    27    28    1
    19     4     5    1
    20     5     6    1
    21     6     7    1
    22     7     8    1
    23     8    29    1
    24    29    30    1
    25    30    31   ar
    26    31    32   ar
    27    32    33   ar
    28    33    36    1
    29    36    37   ar
    30    37    38   ar
    31    38    39   ar
    32    39    40   ar
    33    40    41   ar
    34    33    34   ar
    35    34    35   ar
    36     8     9    1
    37     9    10    1
    38     5    11    1
    39    11    12    2
    40    17    18   ar
    41    18    13   ar
    42    11     1   am
    43    27    22   ar
    44    10     5    1
    45    35    30   ar
    46    41    36   ar
@<TRIPOS>MOLECULE
*****
 41 46 0 0 0
SMALL
GASTEIGER

@<TRIPOS>ATOM
      1 N          62.3053   85.9001   10.7428 N.am    1  UNL1       -0.1909
      2 C          62.4577   87.1568   11.5476 C.2     1  UNL1        0.3173
      3 O          63.2235   87.2951   12.8298 O.2     1  UNL1       -0.2516
      4 N          61.7098   88.2508   10.8449 N.am    1  UNL1       -0.2544
      5 C          61.0951   87.6703    9.6058 C.3     1  UNL1        0.1341
      6 C          60.5451   86.9530    8.4087 C.3     1  UNL1        0.0446
      7 C          59.7092   87.6950    7.4084 C.3     1  UNL1        0.0745
      8 N          59.4232   89.1543    7.6052 N.3     1  UNL1       -0.2688
      9 C          59.9732   89.8716    8.8023 C.3     1  UNL1        0.0745
     10 C          60.8091   89.1296    9.8026 C.3     1  UNL1        0.0446
     11 C          61.4631   86.2175    9.5427 C.2     1  UNL1        0.2525
     12 O          61.0599   85.2517    8.4682 O.2     1  UNL1       -0.2724
     13 C          63.1659   82.5758   12.7322 C.ar    1  UNL1        0.1400
     14 C          64.0654   81.8834   11.7515 C.ar    1  UNL1        0.0370
     15 C          64.3781   82.5300   10.4347 C.ar    1  UNL1        0.0044
     16 C          63.7914   83.8689   10.0985 C.ar    1  UNL1        0.0156
     17 C          62.8920   84.5612   11.0791 C.ar    1  UNL1        0.0652
     18 C          62.5792   83.9147   12.3959 C.ar    1  UNL1        0.0522
     19 C          61.5594   81.1930   14.2346 C.3     1  UNL1        0.2525
     20 O          62.8531   81.9292   14.0490 O.3     1  UNL1       -0.4714
     21 C          61.5964   89.6752   11.3011 C.3     1  UNL1        0.1243
     22 C          62.8284   90.4404   11.6840 C.ar    1  UNL1        0.0252
     23 C          63.3712   90.3387   13.0787 C.ar    1  UNL1       -0.0004
     24 C          64.6032   91.1039   13.4617 C.ar    1  UNL1       -0.0001
     25 C          65.2923   91.9709   12.4500 C.ar    1  UNL1        0.0023
     26 C          64.7495   92.0726   11.0554 C.ar    1  UNL1        0.0294
     27 C          63.5175   91.3074   10.6724 C.ar    1  UNL1        0.1377
     28 F          62.9747   91.4091    9.2778 F       1  UNL1       -0.2044
     29 C          58.5873   89.8963    6.6049 C.3     1  UNL1        0.0991
     30 C          59.2476   90.7210    5.5401 C.ar    1  UNL1       -0.0061
     31 C          58.4377   91.6921    4.7333 C.ar    1  UNL1       -0.0029
     32 C          59.0981   92.5168    3.6685 C.ar    1  UNL1       -0.0003
     33 C          60.5684   92.3703    3.4104 C.ar    1  UNL1        0.0001
     34 C          61.3784   91.3991    4.2172 C.ar    1  UNL1       -0.0003
     35 C          60.7180   90.5745    5.2820 C.ar    1  UNL1       -0.0029
     36 C          61.2288   93.1949    2.3457 C.ar    1  UNL1        0.0031
     37 C          62.5735   92.7959    1.8141 C.ar    1  UNL1        0.0207
     38 C          63.2339   93.6207    0.7492 C.ar    1  UNL1        0.0989
     39 N          62.5496   94.8443    0.2160 N.ar    1  UNL1       -0.2423
     40 C          61.2049   95.2433    0.7476 C.ar    1  UNL1        0.0989
     41 C          60.5445   94.4186    1.8124 C.ar    1  UNL1        0.0207
@<TRIPOS>BOND
     1    19    20    1
     2    20    13    1
     3    13    14   ar
     4    14    15   ar
     5    15    16   ar
     6    16    17   ar
     7    17     1    1
     8     1     2   am
     9     2     3    2
    10     2     4   am
    11     4    21    1
    12    21    22    1
    13    22    23   ar
    14    23    24   ar
    15    24    25   ar
    16    25    26   ar
    17    26    27   ar
    18    27    28    1
    19     4     5    1
    20     5     6    1
    21     6     7    1
    22     7     8    1
    23     8    29    1
    24    29    30    1
    25    30    31   ar
    26    31    32   ar
    27    32    33   ar
    28    33    36    1
    29    36    37   ar
    30    37    38   ar
    31    38    39   ar
    32    39    40   ar
    33    40    41   ar
    34    33    34   ar
    35    34    35   ar
    36     8     9    1
    37     9    10    1
    38     5    11    1
    39    11    12    2
    40    17    18   ar
    41    18    13   ar
    42    11     1   am
    43    27    22   ar
    44    10     5    1
    45    35    30   ar
    46    41    36   ar
@<TRIPOS>MOLECULE
*****
 41 46 0 0 0
SMALL
GASTEIGER

@<TRIPOS>ATOM
      1 N          62.7991   83.7956   13.0916 N.am    1  UNL1       -0.1909
      2 C          62.3921   84.4085   11.7844 C.2     1  UNL1        0.3173
      3 O          61.7959   83.6799   10.6168 O.2     1  UNL1       -0.2516
      4 N          62.6861   85.8780   11.8500 N.am    1  UNL1       -0.2544
      5 C          63.2748   86.1733   13.1977 C.3     1  UNL1        0.1341
      6 C          63.8479   86.3155   14.5766 C.3     1  UNL1        0.0446
      7 C          64.2891   87.6614   15.0702 C.3     1  UNL1        0.0745
      8 N          64.1573   88.8652   14.1850 N.3     1  UNL1       -0.2688
      9 C          63.5842   88.7230   12.8061 C.3     1  UNL1        0.0745
     10 C          63.1429   87.3771   12.3125 C.3     1  UNL1        0.0446
     11 C          63.3446   84.8864   13.9651 C.2     1  UNL1        0.2525
     12 O          63.8681   84.7194   15.3608 O.2     1  UNL1       -0.2724
     13 C          61.2280   80.3240   14.2003 C.ar    1  UNL1        0.1400
     14 C          62.4458   79.4483   14.1985 C.ar    1  UNL1        0.0370
     15 C          63.7813   80.0217   13.8278 C.ar    1  UNL1        0.0044
     16 C          63.8991   81.4708   13.4588 C.ar    1  UNL1        0.0156
     17 C          62.6814   82.3465   13.4606 C.ar    1  UNL1        0.0652
     18 C          61.3458   81.7731   13.8313 C.ar    1  UNL1        0.0522
     19 C          58.6346   80.4805   14.2029 C.3     1  UNL1        0.2525
     20 O          59.8924   79.7507   14.5710 O.3     1  UNL1       -0.4714
     21 C          62.4354   86.8768   10.7594 C.3     1  UNL1        0.1243
     22 C          61.9060   86.4209    9.4319 C.ar    1  UNL1        0.0252
     23 C          62.7820   85.6286    8.5073 C.ar    1  UNL1       -0.0004
     24 C          62.2528   85.1727    7.1799 C.ar    1  UNL1       -0.0001
     25 C          60.8476   85.5090    6.7771 C.ar    1  UNL1        0.0023
     26 C          59.9716   86.3013    7.7017 C.ar    1  UNL1        0.0294
     27 C          60.5008   86.7572    9.0291 C.ar    1  UNL1        0.1377
     28 F          59.6249   87.5495    9.9538 F       1  UNL1       -0.2044
     29 C          64.5986   90.2112   14.6787 C.3     1  UNL1        0.0991
     30 C          65.0729   91.2487   13.7048 C.ar    1  UNL1       -0.0061
     31 C          66.2752   92.0857   14.0269 C.ar    1  UNL1       -0.0029
     32 C          66.7494   93.1234   13.0529 C.ar    1  UNL1       -0.0003
     33 C          66.0213   93.3239   11.7569 C.ar    1  UNL1        0.0001
     34 C          64.8189   92.4869   11.4349 C.ar    1  UNL1       -0.0003
     35 C          64.3447   91.4493   12.4087 C.ar    1  UNL1       -0.0029
     36 C          66.4955   94.3615   10.7830 C.ar    1  UNL1        0.0031
     37 C          66.3180   95.8182   11.0934 C.ar    1  UNL1        0.0207
     38 C          66.7923   96.8558   10.1195 C.ar    1  UNL1        0.0989
     39 N          67.4440   96.4367    8.8352 N.ar    1  UNL1       -0.2423
     40 C          67.6216   94.9799    8.5248 C.ar    1  UNL1        0.0989
     41 C          67.1473   93.9423    9.4987 C.ar    1  UNL1        0.0207
@<TRIPOS>BOND
     1    19    20    1
     2    20    13    1
     3    13    14   ar
     4    14    15   ar
     5    15    16   ar
     6    16    17   ar
     7    17     1    1
     8     1     2   am
     9     2     3    2
    10     2     4   am
    11     4    21    1
    12    21    22    1
    13    22    23   ar
    14    23    24   ar
    15    24    25   ar
    16    25    26   ar
    17    26    27   ar
    18    27    28    1
    19     4     5    1
    20     5     6    1
    21     6     7    1
    22     7     8    1
    23     8    29    1
    24    29    30    1
    25    30    31   ar
    26    31    32   ar
    27    32    33   ar
    28    33    36    1
    29    36    37   ar
    30    37    38   ar
    31    38    39   ar
    32    39    40   ar
    33    40    41   ar
    34    33    34   ar
    35    34    35   ar
    36     8     9    1
    37     9    10    1
    38     5    11    1
    39    11    12    2
    40    17    18   ar
    41    18    13   ar
    42    11     1   am
    43    27    22   ar
    44    10     5    1
    45    35    30   ar
    46    41    36   ar
