@<TRIPOS>MOLECULE
*****
 37 42 0 0 0
SMALL
GASTEIGER

@<TRIPOS>ATOM
      1 C          62.0712   85.2527   16.2217 C.3     1  UNL1        0.0666
      2 S          63.1394   86.1287   16.8062 S.3     1  UNL1       -0.0756
      3 C          63.7591   89.6023   15.1889 C.ar    1  UNL1        0.1669
      4 N          62.9629   89.9849   16.4013 N.ar    1  UNL1       -0.1282
      5 N          62.6339   88.7302   17.1547 N.ar    1  UNL1       -0.1221
      6 C          63.2267   87.5722   16.4080 C.ar    1  UNL1        0.1932
      7 N          63.9221   88.1112   15.1930 N.ar    1  UNL1       -0.2884
      8 C          64.6523   87.3012   14.1631 C.3     1  UNL1        0.1340
      9 C          68.7031   94.3622   15.5766 C.3     1  UNL1        0.0521
     10 C          67.6017   93.4080   15.2210 C.ar    1  UNL1        0.0593
     11 C          67.0632   92.4650   16.2557 C.ar    1  UNL1        0.0147
     12 C          65.9618   91.5108   15.9001 C.ar    1  UNL1        0.0028
     13 C          65.3990   91.4995   14.5098 C.ar    1  UNL1        0.0206
     14 C          64.2977   90.5452   14.1542 C.ar    1  UNL1        0.0374
     15 C          63.7349   90.5339   12.7638 C.ar    1  UNL1        0.0031
     16 C          64.2735   91.4769   11.7290 C.ar    1  UNL1        0.0016
     17 C          65.3748   92.4312   12.0846 C.ar    1  UNL1        0.0191
     18 C          65.9376   92.4424   13.4750 C.ar    1  UNL1        0.0810
     19 N          67.0389   93.3967   13.8306 N.ar    1  UNL1       -0.2497
     20 C          62.4153   83.8791   15.7269 C.3     1  UNL1        0.0294
     21 C          63.7302   83.6341   15.0478 C.3     1  UNL1        0.0730
     22 N          63.7930   83.5215   13.5533 N.3     1  UNL1       -0.2724
     23 C          64.5786   82.5058   12.7780 C.3     1  UNL1        0.0724
     24 C          64.3525   82.7615   11.3173 C.3     1  UNL1        0.0214
     25 C          63.9443   83.2508    9.9594 C.3     1  UNL1        0.0072
     26 C          63.4272   83.9351   11.1900 C.3     1  UNL1        0.0350
     27 C          63.0814   84.4049   12.5719 C.3     1  UNL1        0.0761
     28 C          62.6074   84.9616   10.4658 C.ar    1  UNL1       -0.0215
     29 C          61.6633   85.8423   11.2293 C.ar    1  UNL1       -0.0043
     30 C          60.8436   86.8688   10.5051 C.ar    1  UNL1        0.0035
     31 C          60.9679   87.0145    9.0174 C.ar    1  UNL1        0.0714
     32 C          61.9120   86.1338    8.2539 C.ar    1  UNL1        0.0035
     33 C          62.7318   85.1073    8.9781 C.ar    1  UNL1       -0.0043
     34 C          60.1482   88.0409    8.2932 C.3     1  UNL1        0.4186
     35 F          59.3284   89.0674    7.5691 F       1  UNL1       -0.1659
     36 F          59.4221   86.9481    7.5662 F       1  UNL1       -0.1659
     37 F          60.8742   89.1337    9.0203 F       1  UNL1       -0.1659
@<TRIPOS>BOND
     1     9    10    1
     2    10    11   ar
     3    11    12   ar
     4    12    13   ar
     5    13    14   ar
     6    14     3    1
     7     3     4   ar
     8     4     5   ar
     9     5     6   ar
    10     6     2    1
    11     2     1    1
    12     1    20    1
    13    20    21    1
    14    21    22    1
    15    22    23    1
    16    23    24    1
    17    24    25    1
    18    25    26    1
    19    26    28    1
    20    28    29   ar
    21    29    30   ar
    22    30    31   ar
    23    31    34    1
    24    34    35    1
    25    34    36    1
    26    34    37    1
    27    31    32   ar
    28    32    33   ar
    29    26    27    1
    30     6     7   ar
    31     7     8    1
    32    14    15   ar
    33    15    16   ar
    34    16    17   ar
    35    17    18   ar
    36    18    19   ar
    37    19    10   ar
    38    18    13   ar
    39     7     3   ar
    40    27    22    1
    41    26    24    1
    42    33    28   ar
@<TRIPOS>MOLECULE
*****
 37 42 0 0 0
SMALL
GASTEIGER

@<TRIPOS>ATOM
      1 C          63.1208   89.4459   16.2269 C.3     1  UNL1        0.0666
      2 S          63.1516   88.2089   17.0748 S.3     1  UNL1       -0.0756
      3 C          62.8276   84.8846   15.0975 C.ar    1  UNL1        0.1669
      4 N          61.6474   84.7902   16.0187 N.ar    1  UNL1       -0.1282
      5 N          61.6252   86.0240   16.8715 N.ar    1  UNL1       -0.1221
      6 C          62.7916   86.8810   16.4774 C.ar    1  UNL1        0.1932
      7 N          63.5347   86.1767   15.3810 N.ar    1  UNL1       -0.2884
      8 C          64.7683   86.6769   14.6896 C.3     1  UNL1        0.1340
      9 C          62.8671   85.1819    8.2302 C.3     1  UNL1        0.0521
     10 C          62.9578   84.8528    9.6909 C.ar    1  UNL1        0.0593
     11 C          62.5555   85.8717   10.7156 C.ar    1  UNL1        0.0147
     12 C          62.6462   85.5426   12.1762 C.ar    1  UNL1        0.0028
     13 C          63.1392   84.1948   12.6122 C.ar    1  UNL1        0.0206
     14 C          63.2299   83.8657   14.0728 C.ar    1  UNL1        0.0374
     15 C          63.7229   82.5179   14.5088 C.ar    1  UNL1        0.0031
     16 C          64.1253   81.4989   13.4841 C.ar    1  UNL1        0.0016
     17 C          64.0346   81.8280   12.0234 C.ar    1  UNL1        0.0191
     18 C          63.5415   83.1759   11.5875 C.ar    1  UNL1        0.0810
     19 N          63.4508   83.5050   10.1268 N.ar    1  UNL1       -0.2497
     20 C          63.5290   90.7658   16.8109 C.3     1  UNL1        0.0294
     21 C          64.6680   91.5328   16.2073 C.3     1  UNL1        0.0730
     22 N          64.7503   91.7067   14.7196 N.3     1  UNL1       -0.2724
     23 C          65.7557   92.5422   13.9839 C.3     1  UNL1        0.0724
     24 C          65.4685   92.4275   12.5162 C.3     1  UNL1        0.0214
     25 C          64.9483   92.1249   11.1421 C.3     1  UNL1        0.0072
     26 C          64.2856   91.5211   12.3447 C.3     1  UNL1        0.0350
     27 C          63.8418   91.0756   13.7065 C.3     1  UNL1        0.0761
     28 C          63.2385   90.7638   11.5831 C.ar    1  UNL1       -0.0215
     29 C          63.1175   90.9389   10.0983 C.ar    1  UNL1       -0.0043
     30 C          62.0704   90.1816    9.3367 C.ar    1  UNL1        0.0035
     31 C          61.1443   89.2492   10.0598 C.ar    1  UNL1        0.0714
     32 C          61.2653   89.0742   11.5446 C.ar    1  UNL1        0.0035
     33 C          62.3124   89.8315   12.3063 C.ar    1  UNL1       -0.0043
     34 C          60.0972   88.4919    9.2982 C.3     1  UNL1        0.4186
     35 F          59.0501   87.7347    8.5365 F       1  UNL1       -0.1659
     36 F          60.3601   89.3426    8.0910 F       1  UNL1       -0.1659
     37 F          59.8343   87.6413   10.5053 F       1  UNL1       -0.1659
@<TRIPOS>BOND
     1     9    10    1
     2    10    11   ar
     3    11    12   ar
     4    12    13   ar
     5    13    14   ar
     6    14     3    1
     7     3     4   ar
     8     4     5   ar
     9     5     6   ar
    10     6     2    1
    11     2     1    1
    12     1    20    1
    13    20    21    1
    14    21    22    1
    15    22    23    1
    16    23    24    1
    17    24    25    1
    18    25    26    1
    19    26    28    1
    20    28    29   ar
    21    29    30   ar
    22    30    31   ar
    23    31    34    1
    24    34    35    1
    25    34    36    1
    26    34    37    1
    27    31    32   ar
    28    32    33   ar
    29    26    27    1
    30     6     7   ar
    31     7     8    1
    32    14    15   ar
    33    15    16   ar
    34    16    17   ar
    35    17    18   ar
    36    18    19   ar
    37    19    10   ar
    38    18    13   ar
    39     7     3   ar
    40    27    22    1
    41    26    24    1
    42    33    28   ar
@<TRIPOS>MOLECULE
*****
 37 42 0 0 0
SMALL
GASTEIGER

@<TRIPOS>ATOM
      1 C          61.3502   86.4160    8.9354 C.3     1  UNL1        0.0666
      2 S          60.8002   87.1384   10.1294 S.3     1  UNL1       -0.0756
      3 C          62.7754   90.1059   11.6652 C.ar    1  UNL1        0.1669
      4 N          61.8415   90.8275   10.7393 N.ar    1  UNL1       -0.1282
      5 N          60.9880   89.8038   10.0513 N.ar    1  UNL1       -0.1221
      6 C          61.3943   88.4493   10.5519 C.ar    1  UNL1        0.1932
      7 N          62.4990   88.6361   11.5494 N.ar    1  UNL1       -0.2884
      8 C          63.2036   87.5447   12.2993 C.3     1  UNL1        0.1340
      9 C          67.1689   95.2575   10.4784 C.3     1  UNL1        0.0521
     10 C          66.3279   94.1287   10.9966 C.ar    1  UNL1        0.0593
     11 C          65.2985   93.4923   10.1106 C.ar    1  UNL1        0.0147
     12 C          64.4574   92.3635   10.6288 C.ar    1  UNL1        0.0028
     13 C          64.6459   91.8711   12.0330 C.ar    1  UNL1        0.0206
     14 C          63.8049   90.7423   12.5512 C.ar    1  UNL1        0.0374
     15 C          63.9934   90.2499   13.9555 C.ar    1  UNL1        0.0031
     16 C          65.0229   90.8863   14.8416 C.ar    1  UNL1        0.0016
     17 C          65.8639   92.0151   14.3234 C.ar    1  UNL1        0.0191
     18 C          65.6754   92.5075   12.9191 C.ar    1  UNL1        0.0810
     19 N          66.5164   93.6363   12.4009 N.ar    1  UNL1       -0.2497
     20 C          62.7737   85.9431    8.9350 C.3     1  UNL1        0.0294
     21 C          63.0760   84.4739    8.9423 C.3     1  UNL1        0.0730
     22 N          63.4418   83.7898   10.2261 N.3     1  UNL1       -0.2724
     23 C          63.9647   82.3904   10.3615 C.3     1  UNL1        0.0724
     24 C          64.1950   82.1206   11.8189 C.3     1  UNL1        0.0214
     25 C          64.3215   82.1444   13.3134 C.3     1  UNL1        0.0072
     26 C          63.8144   83.3533   12.5843 C.3     1  UNL1        0.0350
     27 C          63.3490   84.3849   11.5999 C.3     1  UNL1        0.0761
     28 C          63.6156   84.2011   13.8056 C.ar    1  UNL1       -0.0215
     29 C          64.6670   85.1912   14.2106 C.ar    1  UNL1       -0.0043
     30 C          64.4681   86.0390   15.4320 C.ar    1  UNL1        0.0035
     31 C          63.2178   85.8967   16.2483 C.ar    1  UNL1        0.0714
     32 C          62.1664   84.9066   15.8433 C.ar    1  UNL1        0.0035
     33 C          62.3653   84.0587   14.6220 C.ar    1  UNL1       -0.0043
     34 C          63.0190   86.7445   17.4697 C.3     1  UNL1        0.4186
     35 F          62.8201   87.5923   18.6910 F       1  UNL1       -0.1659
     36 F          63.5514   87.9356   16.7295 F       1  UNL1       -0.1659
     37 F          62.4866   85.5534   18.2098 F       1  UNL1       -0.1659
@<TRIPOS>BOND
     1     9    10    1
     2    10    11   ar
     3    11    12   ar
     4    12    13   ar
     5    13    14   ar
     6    14     3    1
     7     3     4   ar
     8     4     5   ar
     9     5     6   ar
    10     6     2    1
    11     2     1    1
    12     1    20    1
    13    20    21    1
    14    21    22    1
    15    22    23    1
    16    23    24    1
    17    24    25    1
    18    25    26    1
    19    26    28    1
    20    28    29   ar
    21    29    30   ar
    22    30    31   ar
    23    31    34    1
    24    34    35    1
    25    34    36    1
    26    34    37    1
    27    31    32   ar
    28    32    33   ar
    29    26    27    1
    30     6     7   ar
    31     7     8    1
    32    14    15   ar
    33    15    16   ar
    34    16    17   ar
    35    17    18   ar
    36    18    19   ar
    37    19    10   ar
    38    18    13   ar
    39     7     3   ar
    40    27    22    1
    41    26    24    1
    42    33    28   ar
@<TRIPOS>MOLECULE
*****
 37 42 0 0 0
SMALL
GASTEIGER

@<TRIPOS>ATOM
      1 C          63.1413   89.1122   16.8158 C.3     1  UNL1        0.0666
      2 S          63.1917   87.7407   17.4212 S.3     1  UNL1       -0.0756
      3 C          62.7694   84.7299   15.0082 C.ar    1  UNL1        0.1669
      4 N          61.4605   84.7005   15.7403 N.ar    1  UNL1       -0.1282
      5 N          61.4594   85.8248   16.7333 N.ar    1  UNL1       -0.1221
      6 C          62.7676   86.5491   16.6150 C.ar    1  UNL1        0.1932
      7 N          63.5773   85.8724   15.5488 N.ar    1  UNL1       -0.2884
      8 C          64.9532   86.2687   15.1017 C.3     1  UNL1        0.1340
      9 C          62.7843   85.4263    8.1697 C.3     1  UNL1        0.0521
     10 C          62.8872   85.0155    9.6087 C.ar    1  UNL1        0.0593
     11 C          62.4609   85.9623   10.6912 C.ar    1  UNL1        0.0147
     12 C          62.5638   85.5515   12.1302 C.ar    1  UNL1        0.0028
     13 C          63.0928   84.1939   12.4867 C.ar    1  UNL1        0.0206
     14 C          63.1957   83.7832   13.9257 C.ar    1  UNL1        0.0374
     15 C          63.7247   82.4256   14.2821 C.ar    1  UNL1        0.0031
     16 C          64.1509   81.4787   13.1996 C.ar    1  UNL1        0.0016
     17 C          64.0481   81.8895   11.7606 C.ar    1  UNL1        0.0191
     18 C          63.5190   83.2472   11.4041 C.ar    1  UNL1        0.0810
     19 N          63.4162   83.6580    9.9652 N.ar    1  UNL1       -0.2497
     20 C          63.3453   89.2887   15.3403 C.3     1  UNL1        0.0294
     21 C          63.5326   90.6625   14.7681 C.3     1  UNL1        0.0730
     22 N          64.8984   91.1215   14.3509 N.3     1  UNL1       -0.2724
     23 C          66.1942   90.7383   15.0019 C.3     1  UNL1        0.0724
     24 C          67.3049   91.4242   14.2628 C.3     1  UNL1        0.0214
     25 C          68.1829   92.2252   13.3477 C.3     1  UNL1        0.0072
     26 C          66.6953   92.2312   13.1551 C.3     1  UNL1        0.0350
     27 C          65.2080   92.0442   13.2095 C.3     1  UNL1        0.0761
     28 C          66.6940   93.1552   11.9735 C.ar    1  UNL1       -0.0215
     29 C          67.1975   92.6745   10.6449 C.ar    1  UNL1       -0.0043
     30 C          67.1962   93.5985    9.4633 C.ar    1  UNL1        0.0035
     31 C          66.6913   95.0033    9.6103 C.ar    1  UNL1        0.0714
     32 C          66.1878   95.4840   10.9389 C.ar    1  UNL1        0.0035
     33 C          66.1892   94.5601   12.1205 C.ar    1  UNL1       -0.0043
     34 C          66.6900   95.9273    8.4286 C.3     1  UNL1        0.4186
     35 F          66.6886   96.8513    7.2470 F       1  UNL1       -0.1659
     36 F          65.4654   96.6090    8.9631 F       1  UNL1       -0.1659
     37 F          67.9145   95.2455    7.8941 F       1  UNL1       -0.1659
@<TRIPOS>BOND
     1     9    10    1
     2    10    11   ar
     3    11    12   ar
     4    12    13   ar
     5    13    14   ar
     6    14     3    1
     7     3     4   ar
     8     4     5   ar
     9     5     6   ar
    10     6     2    1
    11     2     1    1
    12     1    20    1
    13    20    21    1
    14    21    22    1
    15    22    23    1
    16    23    24    1
    17    24    25    1
    18    25    26    1
    19    26    28    1
    20    28    29   ar
    21    29    30   ar
    22    30    31   ar
    23    31    34    1
    24    34    35    1
    25    34    36    1
    26    34    37    1
    27    31    32   ar
    28    32    33   ar
    29    26    27    1
    30     6     7   ar
    31     7     8    1
    32    14    15   ar
    33    15    16   ar
    34    16    17   ar
    35    17    18   ar
    36    18    19   ar
    37    19    10   ar
    38    18    13   ar
    39     7     3   ar
    40    27    22    1
    41    26    24    1
    42    33    28   ar
@<TRIPOS>MOLECULE
*****
 37 42 0 0 0
SMALL
GASTEIGER

@<TRIPOS>ATOM
      1 C          61.0601   86.2575    9.6790 C.3     1  UNL1        0.0666
      2 S          60.7131   87.4944   10.4533 S.3     1  UNL1       -0.0756
      3 C          63.4046   90.0143   11.6666 C.ar    1  UNL1        0.1669
      4 N          63.5059   88.9519   12.7208 N.ar    1  UNL1       -0.1282
      5 N          62.5100   87.8787   12.3946 N.ar    1  UNL1       -0.1221
      6 C          61.7931   88.2777   11.1388 C.ar    1  UNL1        0.1932
      7 N          62.3460   89.5976   10.6889 N.ar    1  UNL1       -0.2884
      8 C          61.9159   90.3658    9.4745 C.3     1  UNL1        0.1340
      9 C          67.4305   93.0165   16.3600 C.3     1  UNL1        0.0521
     10 C          66.6276   92.5805   15.1704 C.ar    1  UNL1        0.0593
     11 C          65.8134   91.3224   15.2354 C.ar    1  UNL1        0.0147
     12 C          65.0104   90.8864   14.0458 C.ar    1  UNL1        0.0028
     13 C          65.0217   91.7084   12.7912 C.ar    1  UNL1        0.0206
     14 C          64.2188   91.2724   11.6016 C.ar    1  UNL1        0.0374
     15 C          64.2301   92.0944   10.3470 C.ar    1  UNL1        0.0031
     16 C          65.0443   93.3525   10.2819 C.ar    1  UNL1        0.0016
     17 C          65.8473   93.7886   11.4716 C.ar    1  UNL1        0.0191
     18 C          65.8359   92.9665   12.7262 C.ar    1  UNL1        0.0810
     19 N          66.6389   93.4025   13.9158 N.ar    1  UNL1       -0.2497
     20 C          62.3802   86.1600    8.9734 C.3     1  UNL1        0.0294
     21 C          63.1013   84.8463    8.9098 C.3     1  UNL1        0.0730
     22 N          63.4188   84.1030   10.1735 N.3     1  UNL1       -0.2724
     23 C          63.8833   82.6798   10.2662 C.3     1  UNL1        0.0724
     24 C          64.0791   82.3496   11.7163 C.3     1  UNL1        0.0214
     25 C          64.1824   82.3156   13.2123 C.3     1  UNL1        0.0072
     26 C          63.7358   83.5689   12.5197 C.3     1  UNL1        0.0350
     27 C          63.3277   84.6525   11.5662 C.3     1  UNL1        0.0761
     28 C          63.5512   84.3804   13.7676 C.ar    1  UNL1       -0.0215
     29 C          62.4766   84.0146   14.7481 C.ar    1  UNL1       -0.0043
     30 C          62.2921   84.8261   15.9961 C.ar    1  UNL1        0.0035
     31 C          63.1821   86.0035   16.2635 C.ar    1  UNL1        0.0714
     32 C          64.2567   86.3693   15.2830 C.ar    1  UNL1        0.0035
     33 C          64.4413   85.5578   14.0351 C.ar    1  UNL1       -0.0043
     34 C          62.9976   86.8151   17.5115 C.3     1  UNL1        0.4186
     35 F          62.8130   87.6266   18.7594 F       1  UNL1       -0.1659
     36 F          63.5372   88.0235   16.8054 F       1  UNL1       -0.1659
     37 F          62.4580   85.6066   18.2175 F       1  UNL1       -0.1659
@<TRIPOS>BOND
     1     9    10    1
     2    10    11   ar
     3    11    12   ar
     4    12    13   ar
     5    13    14   ar
     6    14     3    1
     7     3     4   ar
     8     4     5   ar
     9     5     6   ar
    10     6     2    1
    11     2     1    1
    12     1    20    1
    13    20    21    1
    14    21    22    1
    15    22    23    1
    16    23    24    1
    17    24    25    1
    18    25    26    1
    19    26    28    1
    20    28    29   ar
    21    29    30   ar
    22    30    31   ar
    23    31    34    1
    24    34    35    1
    25    34    36    1
    26    34    37    1
    27    31    32   ar
    28    32    33   ar
    29    26    27    1
    30     6     7   ar
    31     7     8    1
    32    14    15   ar
    33    15    16   ar
    34    16    17   ar
    35    17    18   ar
    36    18    19   ar
    37    19    10   ar
    38    18    13   ar
    39     7     3   ar
    40    27    22    1
    41    26    24    1
    42    33    28   ar
@<TRIPOS>MOLECULE
*****
 37 42 0 0 0
SMALL
GASTEIGER

@<TRIPOS>ATOM
      1 C          62.2978   84.8883   15.6476 C.3     1  UNL1        0.0666
      2 S          63.0826   85.6692   16.6596 S.3     1  UNL1       -0.0756
      3 C          63.9914   89.2599   15.4989 C.ar    1  UNL1        0.1669
      4 N          63.3258   89.5399   16.8137 N.ar    1  UNL1       -0.1282
      5 N          62.9044   88.2290   17.4086 N.ar    1  UNL1       -0.1221
      6 C          63.3095   87.1386   16.4614 C.ar    1  UNL1        0.1932
      7 N          63.9813   87.7758   15.2812 N.ar    1  UNL1       -0.2884
      8 C          64.5441   87.0553   14.0920 C.3     1  UNL1        0.1340
      9 C          62.2558   90.9676    9.0707 C.3     1  UNL1        0.0521
     10 C          62.8334   90.7967   10.4445 C.ar    1  UNL1        0.0593
     11 C          62.2587   89.7726   11.3776 C.ar    1  UNL1        0.0147
     12 C          62.8362   89.6017   12.7514 C.ar    1  UNL1        0.0028
     13 C          63.9885   90.4549   13.1920 C.ar    1  UNL1        0.0206
     14 C          64.5661   90.2840   14.5658 C.ar    1  UNL1        0.0374
     15 C          65.7183   91.1373   15.0064 C.ar    1  UNL1        0.0031
     16 C          66.2931   92.1615   14.0733 C.ar    1  UNL1        0.0016
     17 C          65.7155   92.3324   12.6995 C.ar    1  UNL1        0.0191
     18 C          64.5632   91.4791   12.2589 C.ar    1  UNL1        0.0810
     19 N          63.9856   91.6500   10.8851 N.ar    1  UNL1       -0.2497
     20 C          62.4278   83.3952   15.5874 C.3     1  UNL1        0.0294
     21 C          63.6065   82.7721   14.9000 C.3     1  UNL1        0.0730
     22 N          63.7774   82.9253   13.4176 N.3     1  UNL1       -0.2724
     23 C          64.7021   82.1246   12.5494 C.3     1  UNL1        0.0724
     24 C          64.5499   82.6105   11.1384 C.3     1  UNL1        0.0214
     25 C          64.1887   83.2937    9.8528 C.3     1  UNL1        0.0072
     26 C          63.5312   83.7115   11.1347 C.3     1  UNL1        0.0350
     27 C          63.0538   83.9061   12.5433 C.3     1  UNL1        0.0761
     28 C          62.6702   84.7797   10.5284 C.ar    1  UNL1       -0.0215
     29 C          61.7897   85.6205   11.4045 C.ar    1  UNL1       -0.0043
     30 C          60.9286   86.6887   10.7982 C.ar    1  UNL1        0.0035
     31 C          60.9480   86.9159    9.3157 C.ar    1  UNL1        0.0714
     32 C          61.8284   86.0751    8.4395 C.ar    1  UNL1        0.0035
     33 C          62.6895   85.0069    9.0458 C.ar    1  UNL1       -0.0043
     34 C          60.0869   87.9841    8.7093 C.3     1  UNL1        0.4186
     35 F          59.2258   89.0522    8.1030 F       1  UNL1       -0.1659
     36 F          59.6085   88.3744   10.0764 F       1  UNL1       -0.1659
     37 F          60.5653   87.5938    7.3423 F       1  UNL1       -0.1659
@<TRIPOS>BOND
     1     9    10    1
     2    10    11   ar
     3    11    12   ar
     4    12    13   ar
     5    13    14   ar
     6    14     3    1
     7     3     4   ar
     8     4     5   ar
     9     5     6   ar
    10     6     2    1
    11     2     1    1
    12     1    20    1
    13    20    21    1
    14    21    22    1
    15    22    23    1
    16    23    24    1
    17    24    25    1
    18    25    26    1
    19    26    28    1
    20    28    29   ar
    21    29    30   ar
    22    30    31   ar
    23    31    34    1
    24    34    35    1
    25    34    36    1
    26    34    37    1
    27    31    32   ar
    28    32    33   ar
    29    26    27    1
    30     6     7   ar
    31     7     8    1
    32    14    15   ar
    33    15    16   ar
    34    16    17   ar
    35    17    18   ar
    36    18    19   ar
    37    19    10   ar
    38    18    13   ar
    39     7     3   ar
    40    27    22    1
    41    26    24    1
    42    33    28   ar
@<TRIPOS>MOLECULE
*****
 37 42 0 0 0
SMALL
GASTEIGER

@<TRIPOS>ATOM
      1 C          63.4775   87.7830   16.9486 C.3     1  UNL1        0.0666
      2 S          63.1137   86.3494   17.1986 S.3     1  UNL1       -0.0756
      3 C          62.9791   84.4299   13.8277 C.ar    1  UNL1        0.1669
      4 N          62.1444   83.5407   14.7012 N.ar    1  UNL1       -0.1282
      5 N          62.0932   84.1515   16.0702 N.ar    1  UNL1       -0.1221
      6 C          62.8963   85.4182   16.0429 C.ar    1  UNL1        0.1932
      7 N          63.4438   85.5902   14.6570 N.ar    1  UNL1       -0.2884
      8 C          64.3047   86.7236   14.1835 C.3     1  UNL1        0.1340
      9 C          60.5153   87.4284    8.1542 C.3     1  UNL1        0.0521
     10 C          61.2099   86.6211    9.2105 C.ar    1  UNL1        0.0593
     11 C          60.8953   86.8518   10.6588 C.ar    1  UNL1        0.0147
     12 C          61.5899   86.0445   11.7151 C.ar    1  UNL1        0.0028
     13 C          62.5992   85.0064   11.3231 C.ar    1  UNL1        0.0206
     14 C          63.2938   84.1991   12.3794 C.ar    1  UNL1        0.0374
     15 C          64.3031   83.1611   11.9874 C.ar    1  UNL1        0.0031
     16 C          64.6178   82.9303   10.5390 C.ar    1  UNL1        0.0016
     17 C          63.9232   83.7376    9.4827 C.ar    1  UNL1        0.0191
     18 C          62.9139   84.7757    9.8748 C.ar    1  UNL1        0.0810
     19 N          62.2192   85.5830    8.8185 N.ar    1  UNL1       -0.2497
     20 C          62.4047   88.7875   16.6483 C.3     1  UNL1        0.0294
     21 C          62.5654   89.7346   15.4963 C.3     1  UNL1        0.0730
     22 N          63.7223   90.6890   15.4657 N.3     1  UNL1       -0.2724
     23 C          64.2340   91.4915   16.6250 C.3     1  UNL1        0.0724
     24 C          65.3985   92.3069   16.1462 C.3     1  UNL1        0.0214
     25 C          66.5042   92.9841   15.3920 C.3     1  UNL1        0.0072
     26 C          65.6063   92.0083   14.6910 C.3     1  UNL1        0.0350
     27 C          64.5704   91.0084   14.2704 C.3     1  UNL1        0.0761
     28 C          66.2667   92.1236   13.3491 C.ar    1  UNL1       -0.0215
     29 C          67.7103   91.7490   13.1889 C.ar    1  UNL1       -0.0043
     30 C          68.3707   91.8644   11.8471 C.ar    1  UNL1        0.0035
     31 C          67.5875   92.3544   10.6654 C.ar    1  UNL1        0.0714
     32 C          66.1439   92.7290   10.8256 C.ar    1  UNL1        0.0035
     33 C          65.4835   92.6137   12.1674 C.ar    1  UNL1       -0.0043
     34 C          68.2479   92.4698    9.3235 C.3     1  UNL1        0.4186
     35 F          68.9082   92.5851    7.9817 F       1  UNL1       -0.1659
     36 F          68.3073   93.9603    9.4809 F       1  UNL1       -0.1659
     37 F          68.1884   90.9792    9.1661 F       1  UNL1       -0.1659
@<TRIPOS>BOND
     1     9    10    1
     2    10    11   ar
     3    11    12   ar
     4    12    13   ar
     5    13    14   ar
     6    14     3    1
     7     3     4   ar
     8     4     5   ar
     9     5     6   ar
    10     6     2    1
    11     2     1    1
    12     1    20    1
    13    20    21    1
    14    21    22    1
    15    22    23    1
    16    23    24    1
    17    24    25    1
    18    25    26    1
    19    26    28    1
    20    28    29   ar
    21    29    30   ar
    22    30    31   ar
    23    31    34    1
    24    34    35    1
    25    34    36    1
    26    34    37    1
    27    31    32   ar
    28    32    33   ar
    29    26    27    1
    30     6     7   ar
    31     7     8    1
    32    14    15   ar
    33    15    16   ar
    34    16    17   ar
    35    17    18   ar
    36    18    19   ar
    37    19    10   ar
    38    18    13   ar
    39     7     3   ar
    40    27    22    1
    41    26    24    1
    42    33    28   ar
@<TRIPOS>MOLECULE
*****
 37 42 0 0 0
SMALL
GASTEIGER

@<TRIPOS>ATOM
      1 C          58.6532   90.8652    5.1957 C.3     1  UNL1        0.0666
      2 S          59.1425   92.1426    4.5802 S.3     1  UNL1       -0.0756
      3 C          62.3511   92.8643    2.5187 C.ar    1  UNL1        0.1669
      4 N          62.7804   91.6666    3.3134 N.ar    1  UNL1       -0.1282
      5 N          61.6307   91.2505    4.1824 N.ar    1  UNL1       -0.1221
      6 C          60.4908   92.1910    3.9247 C.ar    1  UNL1        0.1932
      7 N          60.9360   93.1883    2.8965 N.ar    1  UNL1       -0.2884
      8 C          60.1111   94.3123    2.3433 C.3     1  UNL1        0.1340
      9 C          61.4538   93.9248   -4.2133 C.3     1  UNL1        0.0521
     10 C          61.8878   93.8455   -2.7797 C.ar    1  UNL1        0.0593
     11 C          61.0493   93.1024   -1.7823 C.ar    1  UNL1        0.0147
     12 C          61.4832   93.0230   -0.3487 C.ar    1  UNL1        0.0028
     13 C          62.7556   93.6867    0.0877 C.ar    1  UNL1        0.0206
     14 C          63.1896   93.6073    1.5213 C.ar    1  UNL1        0.0374
     15 C          64.4620   94.2710    1.9576 C.ar    1  UNL1        0.0031
     16 C          65.3006   95.0141    0.9603 C.ar    1  UNL1        0.0016
     17 C          64.8666   95.0935   -0.4734 C.ar    1  UNL1        0.0191
     18 C          63.5941   94.4298   -0.9097 C.ar    1  UNL1        0.0810
     19 N          63.1602   94.5091   -2.3434 N.ar    1  UNL1       -0.2497
     20 C          59.5164   90.1254    6.1743 C.3     1  UNL1        0.0294
     21 C          58.9488   88.9795    6.9583 C.3     1  UNL1        0.0730
     22 N          59.8183   88.2250    7.9200 N.3     1  UNL1       -0.2724
     23 C          59.9366   86.7329    8.0175 C.3     1  UNL1        0.0724
     24 C          60.9136   86.4158    9.1107 C.3     1  UNL1        0.0214
     25 C          61.9093   86.4105   10.2326 C.3     1  UNL1        0.0072
     26 C          61.3990   87.7120    9.6888 C.3     1  UNL1        0.0350
     27 C          60.7221   88.8301    8.9529 C.3     1  UNL1        0.0761
     28 C          62.1961   88.5893   10.6080 C.ar    1  UNL1       -0.0215
     29 C          62.7554   88.0287   11.8819 C.ar    1  UNL1       -0.0043
     30 C          63.5525   88.9059   12.8012 C.ar    1  UNL1        0.0035
     31 C          63.7903   90.3439   12.4465 C.ar    1  UNL1        0.0714
     32 C          63.2310   90.9045   11.1727 C.ar    1  UNL1        0.0035
     33 C          62.4339   90.0272   10.2534 C.ar    1  UNL1       -0.0043
     34 C          64.5875   91.2211   13.3658 C.3     1  UNL1        0.4186
     35 F          65.3846   92.0984   14.2850 F       1  UNL1       -0.1659
     36 F          64.6052   90.1284   14.3932 F       1  UNL1       -0.1659
     37 F          64.5697   92.3138   12.3384 F       1  UNL1       -0.1659
@<TRIPOS>BOND
     1     9    10    1
     2    10    11   ar
     3    11    12   ar
     4    12    13   ar
     5    13    14   ar
     6    14     3    1
     7     3     4   ar
     8     4     5   ar
     9     5     6   ar
    10     6     2    1
    11     2     1    1
    12     1    20    1
    13    20    21    1
    14    21    22    1
    15    22    23    1
    16    23    24    1
    17    24    25    1
    18    25    26    1
    19    26    28    1
    20    28    29   ar
    21    29    30   ar
    22    30    31   ar
    23    31    34    1
    24    34    35    1
    25    34    36    1
    26    34    37    1
    27    31    32   ar
    28    32    33   ar
    29    26    27    1
    30     6     7   ar
    31     7     8    1
    32    14    15   ar
    33    15    16   ar
    34    16    17   ar
    35    17    18   ar
    36    18    19   ar
    37    19    10   ar
    38    18    13   ar
    39     7     3   ar
    40    27    22    1
    41    26    24    1
    42    33    28   ar
@<TRIPOS>MOLECULE
*****
 37 42 0 0 0
SMALL
GASTEIGER

@<TRIPOS>ATOM
      1 C          61.2438   90.9094   10.8478 C.3     1  UNL1        0.0666
      2 S          60.1449   89.8937   10.7434 S.3     1  UNL1       -0.0756
      3 C          61.5316   86.3595    9.9358 C.ar    1  UNL1        0.1669
      4 N          60.2994   86.3898    9.0808 N.ar    1  UNL1       -0.1282
      5 N          59.6300   87.7174    9.2793 N.ar    1  UNL1       -0.1221
      6 C          60.4484   88.5077   10.2570 C.ar    1  UNL1        0.1932
      7 N          61.6237   87.6684   10.6627 N.ar    1  UNL1       -0.2884
      8 C          62.7017   88.0679   11.6262 C.3     1  UNL1        0.1340
      9 C          63.6673   82.7746   15.3982 C.3     1  UNL1        0.0521
     10 C          63.3758   83.3860   14.0598 C.ar    1  UNL1        0.0593
     11 C          62.4061   84.5252   13.9509 C.ar    1  UNL1        0.0147
     12 C          62.1146   85.1366   12.6125 C.ar    1  UNL1        0.0028
     13 C          62.7928   84.6089   11.3831 C.ar    1  UNL1        0.0206
     14 C          62.5013   85.2204   10.0448 C.ar    1  UNL1        0.0374
     15 C          63.1796   84.6926    8.8154 C.ar    1  UNL1        0.0031
     16 C          64.1494   83.5534    8.9243 C.ar    1  UNL1        0.0016
     17 C          64.4408   82.9420   10.2627 C.ar    1  UNL1        0.0191
     18 C          63.7625   83.4698   11.4921 C.ar    1  UNL1        0.0810
     19 N          64.0540   82.8583   12.8304 N.ar    1  UNL1       -0.2497
     20 C          62.4046   90.8585    9.8991 C.3     1  UNL1        0.0294
     21 C          63.6027   91.7302   10.1326 C.3     1  UNL1        0.0730
     22 N          64.2851   91.7252   11.4684 N.3     1  UNL1       -0.2724
     23 C          65.3816   92.6525   11.9018 C.3     1  UNL1        0.0724
     24 C          65.7650   92.2924   13.3066 C.3     1  UNL1        0.0214
     25 C          65.9262   91.7130   14.6808 C.3     1  UNL1        0.0072
     26 C          64.9055   91.1425   13.7413 C.3     1  UNL1        0.0350
     27 C          63.9909   90.7919   12.6053 C.3     1  UNL1        0.0761
     28 C          64.3978   90.0899   14.6818 C.ar    1  UNL1       -0.0215
     29 C          64.5750   88.6381   14.3489 C.ar    1  UNL1       -0.0043
     30 C          64.0673   87.5856   15.2893 C.ar    1  UNL1        0.0035
     31 C          63.3825   87.9848   16.5627 C.ar    1  UNL1        0.0714
     32 C          63.2053   89.4366   16.8956 C.ar    1  UNL1        0.0035
     33 C          63.7130   90.4892   15.9552 C.ar    1  UNL1       -0.0043
     34 C          62.8748   86.9323   17.5032 C.3     1  UNL1        0.4186
     35 F          62.3672   85.8798   18.4436 F       1  UNL1       -0.1659
     36 F          62.8404   85.9424   16.3767 F       1  UNL1       -0.1659
     37 F          62.9093   87.9222   18.6296 F       1  UNL1       -0.1659
@<TRIPOS>BOND
     1     9    10    1
     2    10    11   ar
     3    11    12   ar
     4    12    13   ar
     5    13    14   ar
     6    14     3    1
     7     3     4   ar
     8     4     5   ar
     9     5     6   ar
    10     6     2    1
    11     2     1    1
    12     1    20    1
    13    20    21    1
    14    21    22    1
    15    22    23    1
    16    23    24    1
    17    24    25    1
    18    25    26    1
    19    26    28    1
    20    28    29   ar
    21    29    30   ar
    22    30    31   ar
    23    31    34    1
    24    34    35    1
    25    34    36    1
    26    34    37    1
    27    31    32   ar
    28    32    33   ar
    29    26    27    1
    30     6     7   ar
    31     7     8    1
    32    14    15   ar
    33    15    16   ar
    34    16    17   ar
    35    17    18   ar
    36    18    19   ar
    37    19    10   ar
    38    18    13   ar
    39     7     3   ar
    40    27    22    1
    41    26    24    1
    42    33    28   ar
