@<TRIPOS>MOLECULE
*****
 21 23 0 0 0
SMALL
GASTEIGER

@<TRIPOS>ATOM
      1 C          66.0365   92.6424   12.3516 C.3     1  UNL1        0.0798
      2 C          66.6338   92.3745   13.7012 C.3     1  UNL1        0.0421
      3 C          66.0538   91.3055   14.5793 C.3     1  UNL1        0.0973
      4 N          64.8765   90.5046   14.1078 N.pl3   1  UNL1       -0.2870
      5 C          64.2792   90.7725   12.7581 C.ar    1  UNL1        0.0488
      6 C          63.1019   89.9715   12.2867 C.ar    1  UNL1        0.0146
      7 C          62.5046   90.2395   10.9371 C.ar    1  UNL1        0.0013
      8 C          63.0845   91.3084   10.0590 C.ar    1  UNL1       -0.0002
      9 C          64.2619   92.1093   10.5305 C.ar    1  UNL1       -0.0017
     10 C          64.8592   91.8414   11.8801 C.ar    1  UNL1        0.0057
     11 C          64.2965   89.4357   14.9859 C.ar    1  UNL1        0.0525
     12 C          63.4652   89.8121   16.1763 C.ar    1  UNL1        0.0157
     13 C          62.8852   88.7432   17.0544 C.ar    1  UNL1        0.0135
     14 C          63.1365   87.2978   16.7420 C.ar    1  UNL1        0.0683
     15 CL         62.5565   86.2289   17.6201 Cl      1  UNL1       -0.0814
     16 C          63.9679   86.9213   15.5516 C.ar    1  UNL1        0.0694
     17 CL         64.2192   85.4759   15.2392 Cl      1  UNL1       -0.0813
     18 C          64.5479   87.9902   14.6735 C.ar    1  UNL1        0.0271
     19 C          66.1724   95.1352   11.6323 C.3     1  UNL1        0.0861
     20 N          66.6165   93.7113   11.4735 N.3     1  UNL1       -0.2939
     21 H          67.6255   93.6993   11.6224 H       1  UNL1        0.1235
@<TRIPOS>BOND
     1    19    20    1
     2    20     1    1
     3     1     2    1
     4     2     3    1
     5     3     4    1
     6     4    11    1
     7    11    12   ar
     8    12    13   ar
     9    13    14   ar
    10    14    15    1
    11    14    16   ar
    12    16    17    1
    13    16    18   ar
    14     4     5    1
    15     5     6   ar
    16     6     7   ar
    17     7     8   ar
    18     8     9   ar
    19     9    10   ar
    20    10     1    1
    21    18    11   ar
    22    10     5   ar
    23    20    21    1
@<TRIPOS>MOLECULE
*****
 21 23 0 0 0
SMALL
GASTEIGER

@<TRIPOS>ATOM
      1 C          64.9366   92.4480   11.5325 C.3     1  UNL1        0.0798
      2 C          63.9780   91.3395   11.2126 C.3     1  UNL1        0.0421
      3 C          63.6494   90.3090   12.2518 C.3     1  UNL1        0.0973
      4 N          64.2792   90.3869   13.6109 N.pl3   1  UNL1       -0.2870
      5 C          65.2378   91.4955   13.9309 C.ar    1  UNL1        0.0488
      6 C          65.8677   91.5734   15.2899 C.ar    1  UNL1        0.0146
      7 C          66.8262   92.6819   15.6098 C.ar    1  UNL1        0.0013
      8 C          67.1549   93.7125   14.5706 C.ar    1  UNL1       -0.0002
      9 C          66.5251   93.6345   13.2116 C.ar    1  UNL1       -0.0017
     10 C          65.5665   92.5260   12.8917 C.ar    1  UNL1        0.0057
     11 C          63.9505   89.3564   14.6501 C.ar    1  UNL1        0.0525
     12 C          63.2476   89.7612   15.9118 C.ar    1  UNL1        0.0157
     13 C          62.9189   88.7307   16.9510 C.ar    1  UNL1        0.0135
     14 C          63.2931   87.2953   16.7285 C.ar    1  UNL1        0.0683
     15 CL         62.9645   86.2647   17.7677 Cl      1  UNL1       -0.0814
     16 C          63.9961   86.8904   15.4667 C.ar    1  UNL1        0.0694
     17 CL         64.3703   85.4550   15.2442 Cl      1  UNL1       -0.0813
     18 C          64.3248   87.9209   14.4275 C.ar    1  UNL1        0.0271
     19 C          66.6232   93.4948    9.8564 C.3     1  UNL1        0.0861
     20 N          65.2653   93.4786   10.4933 N.3     1  UNL1       -0.2939
     21 H          64.5878   93.3632    9.7396 H       1  UNL1        0.1235
@<TRIPOS>BOND
     1    19    20    1
     2    20     1    1
     3     1     2    1
     4     2     3    1
     5     3     4    1
     6     4    11    1
     7    11    12   ar
     8    12    13   ar
     9    13    14   ar
    10    14    15    1
    11    14    16   ar
    12    16    17    1
    13    16    18   ar
    14     4     5    1
    15     5     6   ar
    16     6     7   ar
    17     7     8   ar
    18     8     9   ar
    19     9    10   ar
    20    10     1    1
    21    18    11   ar
    22    10     5   ar
    23    20    21    1
@<TRIPOS>MOLECULE
*****
 21 23 0 0 0
SMALL
GASTEIGER

@<TRIPOS>ATOM
      1 C          64.1669   90.0077   14.1481 C.3     1  UNL1        0.0798
      2 C          65.3826   90.7775   14.5717 C.3     1  UNL1        0.0421
      3 C          66.0108   91.7639   13.6323 C.3     1  UNL1        0.0973
      4 N          65.4233   91.9804   12.2693 N.pl3   1  UNL1       -0.2870
      5 C          64.2076   91.2105   11.8455 C.ar    1  UNL1        0.0488
      6 C          63.6202   91.4270   10.4825 C.ar    1  UNL1        0.0146
      7 C          62.4045   90.6572   10.0588 C.ar    1  UNL1        0.0013
      8 C          61.7763   89.6708   10.9983 C.ar    1  UNL1       -0.0002
      9 C          62.3638   89.4543   12.3613 C.ar    1  UNL1       -0.0017
     10 C          63.5794   90.2242   12.7850 C.ar    1  UNL1        0.0057
     11 C          66.0515   92.9667   11.3298 C.ar    1  UNL1        0.0525
     12 C          67.0530   92.5023   10.3143 C.ar    1  UNL1        0.0157
     13 C          67.6812   93.4886    9.3749 C.ar    1  UNL1        0.0135
     14 C          67.3079   94.9394    9.4510 C.ar    1  UNL1        0.0683
     15 CL         67.9361   95.9257    8.5116 Cl      1  UNL1       -0.0814
     16 C          66.3064   95.4039   10.4666 C.ar    1  UNL1        0.0694
     17 CL         65.9331   96.8547   10.5427 Cl      1  UNL1       -0.0813
     18 C          65.6782   94.4176   11.4060 C.ar    1  UNL1        0.0271
     19 C          63.1510   89.4469   16.4726 C.3     1  UNL1        0.0861
     20 N          63.5387   89.0214   15.0875 N.3     1  UNL1       -0.2939
     21 H          62.6895   88.6833   14.6348 H       1  UNL1        0.1235
@<TRIPOS>BOND
     1    19    20    1
     2    20     1    1
     3     1     2    1
     4     2     3    1
     5     3     4    1
     6     4    11    1
     7    11    12   ar
     8    12    13   ar
     9    13    14   ar
    10    14    15    1
    11    14    16   ar
    12    16    17    1
    13    16    18   ar
    14     4     5    1
    15     5     6   ar
    16     6     7   ar
    17     7     8   ar
    18     8     9   ar
    19     9    10   ar
    20    10     1    1
    21    18    11   ar
    22    10     5   ar
    23    20    21    1
@<TRIPOS>MOLECULE
*****
 21 23 0 0 0
SMALL
GASTEIGER

@<TRIPOS>ATOM
      1 C          63.8946   88.5138   13.6217 C.3     1  UNL1        0.0798
      2 C          64.4031   87.5086   14.6121 C.3     1  UNL1        0.0421
      3 C          64.2024   86.0430   14.3635 C.3     1  UNL1        0.0973
      4 N          63.4932   85.5826   13.1246 N.pl3   1  UNL1       -0.2870
      5 C          62.9846   86.5879   12.1341 C.ar    1  UNL1        0.0488
      6 C          62.2754   86.1275   10.8952 C.ar    1  UNL1        0.0146
      7 C          61.7669   87.1327    9.9048 C.ar    1  UNL1        0.0013
      8 C          61.9676   88.5983   10.1533 C.ar    1  UNL1       -0.0002
      9 C          62.6768   89.0587   11.3923 C.ar    1  UNL1       -0.0017
     10 C          63.1853   88.0535   12.3827 C.ar    1  UNL1        0.0057
     11 C          63.2925   84.1170   12.8760 C.ar    1  UNL1        0.0525
     12 C          64.0710   83.4260   11.7961 C.ar    1  UNL1        0.0157
     13 C          63.8703   81.9604   11.5475 C.ar    1  UNL1        0.0135
     14 C          62.8910   81.1859   12.3789 C.ar    1  UNL1        0.0683
     15 CL         62.6903   79.7203   12.1304 Cl      1  UNL1       -0.0814
     16 C          62.1125   81.8770   13.4589 C.ar    1  UNL1        0.0694
     17 CL         61.1332   81.1024   14.2903 Cl      1  UNL1       -0.0813
     18 C          62.3132   83.3425   13.7075 C.ar    1  UNL1        0.0271
     19 C          63.8798   90.5437   15.2432 C.3     1  UNL1        0.0861
     20 N          64.0953   89.9794   13.8703 N.3     1  UNL1       -0.2939
     21 H          65.0588   90.1926   13.6122 H       1  UNL1        0.1235
@<TRIPOS>BOND
     1    19    20    1
     2    20     1    1
     3     1     2    1
     4     2     3    1
     5     3     4    1
     6     4    11    1
     7    11    12   ar
     8    12    13   ar
     9    13    14   ar
    10    14    15    1
    11    14    16   ar
    12    16    17    1
    13    16    18   ar
    14     4     5    1
    15     5     6   ar
    16     6     7   ar
    17     7     8   ar
    18     8     9   ar
    19     9    10   ar
    20    10     1    1
    21    18    11   ar
    22    10     5   ar
    23    20    21    1
@<TRIPOS>MOLECULE
*****
 21 23 0 0 0
SMALL
GASTEIGER

@<TRIPOS>ATOM
      1 C          60.2402   88.6198    8.4633 C.3     1  UNL1        0.0798
      2 C          60.0522   87.2057    7.9998 C.3     1  UNL1        0.0421
      3 C          60.7733   86.0874    8.6922 C.3     1  UNL1        0.0973
      4 N          61.6824   86.3832    9.8481 N.pl3   1  UNL1       -0.2870
      5 C          61.8705   87.7974   10.3116 C.ar    1  UNL1        0.0488
      6 C          62.7796   88.0932   11.4674 C.ar    1  UNL1        0.0146
      7 C          62.9676   89.5074   11.9308 C.ar    1  UNL1        0.0013
      8 C          62.2465   90.6257   11.2384 C.ar    1  UNL1       -0.0002
      9 C          61.3374   90.3299   10.0826 C.ar    1  UNL1       -0.0017
     10 C          61.1494   88.9157    9.6192 C.ar    1  UNL1        0.0057
     11 C          62.4035   85.2649   10.5405 C.ar    1  UNL1        0.0525
     12 C          63.3569   84.3982    9.7725 C.ar    1  UNL1        0.0157
     13 C          64.0780   83.2799   10.4649 C.ar    1  UNL1        0.0135
     14 C          63.8457   83.0283   11.9253 C.ar    1  UNL1        0.0683
     15 CL         64.5667   81.9100   12.6177 Cl      1  UNL1       -0.0814
     16 C          62.8922   83.8950   12.6933 C.ar    1  UNL1        0.0694
     17 CL         62.6599   83.6434   14.1537 Cl      1  UNL1       -0.0813
     18 C          62.1711   85.0133   12.0009 C.ar    1  UNL1        0.0271
     19 C          59.3160   89.6934    6.2854 C.3     1  UNL1        0.0861
     20 N          59.5192   89.7381    7.7709 N.3     1  UNL1       -0.2939
     21 H          58.5926   89.7970    8.1931 H       1  UNL1        0.1235
@<TRIPOS>BOND
     1    19    20    1
     2    20     1    1
     3     1     2    1
     4     2     3    1
     5     3     4    1
     6     4    11    1
     7    11    12   ar
     8    12    13   ar
     9    13    14   ar
    10    14    15    1
    11    14    16   ar
    12    16    17    1
    13    16    18   ar
    14     4     5    1
    15     5     6   ar
    16     6     7   ar
    17     7     8   ar
    18     8     9   ar
    19     9    10   ar
    20    10     1    1
    21    18    11   ar
    22    10     5   ar
    23    20    21    1
@<TRIPOS>MOLECULE
*****
 21 23 0 0 0
SMALL
GASTEIGER

@<TRIPOS>ATOM
      1 C          65.3133   92.0029   14.8815 C.3     1  UNL1        0.0798
      2 C          64.3604   90.9542   15.3737 C.3     1  UNL1        0.0421
      3 C          63.4755   90.2299   14.4030 C.3     1  UNL1        0.0973
      4 N          63.5434   90.5542   12.9401 N.pl3   1  UNL1       -0.2870
      5 C          64.4963   91.6029   12.4478 C.ar    1  UNL1        0.0488
      6 C          64.5642   91.9272   10.9849 C.ar    1  UNL1        0.0146
      7 C          65.5170   92.9759   10.4927 C.ar    1  UNL1        0.0013
      8 C          66.4020   93.7003   11.4634 C.ar    1  UNL1       -0.0002
      9 C          66.3341   93.3759   12.9263 C.ar    1  UNL1       -0.0017
     10 C          65.3812   92.3273   13.4185 C.ar    1  UNL1        0.0057
     11 C          62.6585   89.8298   11.9695 C.ar    1  UNL1        0.0525
     12 C          61.5650   90.5684   11.2562 C.ar    1  UNL1        0.0157
     13 C          60.6801   89.8440   10.2855 C.ar    1  UNL1        0.0135
     14 C          60.8886   88.3811   10.0281 C.ar    1  UNL1        0.0683
     15 CL         60.0037   87.6568    9.0574 Cl      1  UNL1       -0.0814
     16 C          61.9822   87.6425   10.7414 C.ar    1  UNL1        0.0694
     17 CL         62.1908   86.1796   10.4839 Cl      1  UNL1       -0.0813
     18 C          62.8671   88.3668   11.7120 C.ar    1  UNL1        0.0271
     19 C          67.6273   92.3051   16.0233 C.3     1  UNL1        0.0861
     20 N          66.1982   92.7272   15.8522 N.3     1  UNL1       -0.2939
     21 H          66.2127   93.7056   15.5639 H       1  UNL1        0.1235
@<TRIPOS>BOND
     1    19    20    1
     2    20     1    1
     3     1     2    1
     4     2     3    1
     5     3     4    1
     6     4    11    1
     7    11    12   ar
     8    12    13   ar
     9    13    14   ar
    10    14    15    1
    11    14    16   ar
    12    16    17    1
    13    16    18   ar
    14     4     5    1
    15     5     6   ar
    16     6     7   ar
    17     7     8   ar
    18     8     9   ar
    19     9    10   ar
    20    10     1    1
    21    18    11   ar
    22    10     5   ar
    23    20    21    1
@<TRIPOS>MOLECULE
*****
 21 23 0 0 0
SMALL
GASTEIGER

@<TRIPOS>ATOM
      1 C          62.7567   89.2923   11.7421 C.3     1  UNL1        0.0798
      2 C          63.5083   88.7154   12.9049 C.3     1  UNL1        0.0421
      3 C          63.5087   87.2335   13.1369 C.3     1  UNL1        0.0973
      4 N          62.7575   86.3284   12.2060 N.pl3   1  UNL1       -0.2870
      5 C          62.0059   86.9053   11.0431 C.ar    1  UNL1        0.0488
      6 C          61.2547   86.0003   10.1122 C.ar    1  UNL1        0.0146
      7 C          60.5031   86.5772    8.9494 C.ar    1  UNL1        0.0013
      8 C          60.5027   88.0591    8.7174 C.ar    1  UNL1       -0.0002
      9 C          61.2539   88.9642    9.6483 C.ar    1  UNL1       -0.0017
     10 C          62.0055   88.3873   10.8111 C.ar    1  UNL1        0.0057
     11 C          62.7579   84.8465   12.4380 C.ar    1  UNL1        0.0525
     12 C          62.3830   84.2977   13.7827 C.ar    1  UNL1        0.0157
     13 C          62.3834   82.8158   14.0146 C.ar    1  UNL1        0.0135
     14 C          62.7588   81.8826   12.9019 C.ar    1  UNL1        0.0683
     15 CL         62.7592   80.4006   13.1339 Cl      1  UNL1       -0.0814
     16 C          63.1337   82.4313   11.5571 C.ar    1  UNL1        0.0694
     17 CL         63.5090   81.4981   10.4444 Cl      1  UNL1       -0.0813
     18 C          63.1333   83.9133   11.3251 C.ar    1  UNL1        0.0271
     19 C          63.9800   91.4483   10.9639 C.3     1  UNL1        0.0861
     20 N          62.7563   90.7743   11.5101 N.3     1  UNL1       -0.2939
     21 H          61.9966   90.9701   10.8583 H       1  UNL1        0.1235
@<TRIPOS>BOND
     1    19    20    1
     2    20     1    1
     3     1     2    1
     4     2     3    1
     5     3     4    1
     6     4    11    1
     7    11    12   ar
     8    12    13   ar
     9    13    14   ar
    10    14    15    1
    11    14    16   ar
    12    16    17    1
    13    16    18   ar
    14     4     5    1
    15     5     6   ar
    16     6     7   ar
    17     7     8   ar
    18     8     9   ar
    19     9    10   ar
    20    10     1    1
    21    18    11   ar
    22    10     5   ar
    23    20    21    1
@<TRIPOS>MOLECULE
*****
 21 23 0 0 0
SMALL
GASTEIGER

@<TRIPOS>ATOM
      1 C          62.4838   89.3500   11.0987 C.3     1  UNL1        0.0798
      2 C          61.9090   88.4026   10.0878 C.3     1  UNL1        0.0421
      3 C          62.0033   86.9220   10.3090 C.3     1  UNL1        0.0973
      4 N          62.6723   86.3888   11.5411 N.pl3   1  UNL1       -0.2870
      5 C          63.2471   87.3362   12.5521 C.ar    1  UNL1        0.0488
      6 C          63.9161   86.8031   13.7842 C.ar    1  UNL1        0.0146
      7 C          64.4908   87.7505   14.7951 C.ar    1  UNL1        0.0013
      8 C          64.3966   89.2311   14.5739 C.ar    1  UNL1       -0.0002
      9 C          63.7275   89.7643   13.3418 C.ar    1  UNL1       -0.0017
     10 C          63.1528   88.8168   12.3309 C.ar    1  UNL1        0.0057
     11 C          62.7666   84.9082   11.7623 C.ar    1  UNL1        0.0525
     12 C          63.2770   84.0175   10.6686 C.ar    1  UNL1        0.0157
     13 C          63.3713   82.5369   10.8898 C.ar    1  UNL1        0.0135
     14 C          62.9552   81.9470   12.2046 C.ar    1  UNL1        0.0683
     15 CL         63.0495   80.4664   12.4258 Cl      1  UNL1       -0.0814
     16 C          62.4448   82.8377   13.2984 C.ar    1  UNL1        0.0694
     17 CL         62.0288   82.2478   14.6132 Cl      1  UNL1       -0.0813
     18 C          62.3505   84.3183   13.0772 C.ar    1  UNL1        0.0271
     19 C          63.5005   91.5568   10.1788 C.3     1  UNL1        0.0861
     20 N          62.3895   90.8306   10.8775 N.3     1  UNL1       -0.2939
     21 H          61.5427   90.9936   10.3327 H       1  UNL1        0.1235
@<TRIPOS>BOND
     1    19    20    1
     2    20     1    1
     3     1     2    1
     4     2     3    1
     5     3     4    1
     6     4    11    1
     7    11    12   ar
     8    12    13   ar
     9    13    14   ar
    10    14    15    1
    11    14    16   ar
    12    16    17    1
    13    16    18   ar
    14     4     5    1
    15     5     6   ar
    16     6     7   ar
    17     7     8   ar
    18     8     9   ar
    19     9    10   ar
    20    10     1    1
    21    18    11   ar
    22    10     5   ar
    23    20    21    1
@<TRIPOS>MOLECULE
*****
 21 23 0 0 0
SMALL
GASTEIGER

@<TRIPOS>ATOM
      1 C          64.0847   90.0003   13.6125 C.3     1  UNL1        0.0798
      2 C          63.4884   90.7513   12.4591 C.3     1  UNL1        0.0421
      3 C          62.7716   90.0085   11.3707 C.3     1  UNL1        0.0973
      4 N          62.6512   88.5148   11.4357 N.pl3   1  UNL1       -0.2870
      5 C          63.2476   87.7638   12.5892 C.ar    1  UNL1        0.0488
      6 C          63.1272   86.2701   12.6542 C.ar    1  UNL1        0.0146
      7 C          63.7236   85.5191   13.8075 C.ar    1  UNL1        0.0013
      8 C          64.4403   86.2618   14.8959 C.ar    1  UNL1       -0.0002
      9 C          64.5607   87.7555   14.8309 C.ar    1  UNL1       -0.0017
     10 C          63.9644   88.5065   13.6776 C.ar    1  UNL1        0.0057
     11 C          61.9345   87.7721   10.3473 C.ar    1  UNL1        0.0525
     12 C          60.4822   88.0416   10.0861 C.ar    1  UNL1        0.0157
     13 C          59.7655   87.2988    8.9977 C.ar    1  UNL1        0.0135
     14 C          60.5010   86.2866    8.1705 C.ar    1  UNL1        0.0683
     15 CL         59.7843   85.5439    7.0821 Cl      1  UNL1       -0.0814
     16 C          61.9534   86.0170    8.4317 C.ar    1  UNL1        0.0694
     17 CL         62.6889   85.0048    7.6045 Cl      1  UNL1       -0.0813
     18 C          62.6701   86.7598    9.5201 C.ar    1  UNL1        0.0271
     19 C          66.0421   91.5245   14.3843 C.3     1  UNL1        0.0861
     20 N          64.8015   90.7431   14.7009 N.3     1  UNL1       -0.2939
     21 H          64.1318   91.4020   15.0980 H       1  UNL1        0.1235
@<TRIPOS>BOND
     1    19    20    1
     2    20     1    1
     3     1     2    1
     4     2     3    1
     5     3     4    1
     6     4    11    1
     7    11    12   ar
     8    12    13   ar
     9    13    14   ar
    10    14    15    1
    11    14    16   ar
    12    16    17    1
    13    16    18   ar
    14     4     5    1
    15     5     6   ar
    16     6     7   ar
    17     7     8   ar
    18     8     9   ar
    19     9    10   ar
    20    10     1    1
    21    18    11   ar
    22    10     5   ar
    23    20    21    1
