@<TRIPOS>MOLECULE
*****
 49 55 0 0 0
SMALL
GASTEIGER

@<TRIPOS>ATOM
      1 C          59.8427   89.8394    6.9875 C.ar    1  UNL1        0.1320
      2 C          59.5303   88.3724    6.9731 C.ar    1  UNL1        0.0374
      3 C          59.5829   87.5819    8.2468 C.ar    1  UNL1        0.0414
      4 C          59.9479   88.2584    9.5349 C.ar    1  UNL1        0.1579
      5 C          60.2604   89.7255    9.5492 C.ar    1  UNL1        0.1370
      6 N          60.2077   90.5160    8.2755 N.ar    1  UNL1       -0.2260
      7 N          59.6848   92.2110    3.1664 N.pl3   1  UNL1       -0.3041
      8 C          60.9917   91.6584    3.6526 C.3     1  UNL1        0.1123
      9 C          61.0444   90.8679    4.9264 C.3     1  UNL1        0.1136
     10 N          59.7901   90.6299    5.7138 N.pl3   1  UNL1       -0.2897
     11 C          58.4831   91.1826    5.2275 C.3     1  UNL1        0.1136
     12 C          58.4305   91.9730    3.9538 C.3     1  UNL1        0.1123
     13 C          59.5268   94.5824   -0.6548 C.ar    1  UNL1        0.0699
     14 C          59.0933   93.1465   -0.6448 C.ar    1  UNL1        0.0190
     15 C          59.1460   92.3560    0.6289 C.ar    1  UNL1        0.0160
     16 C          59.6321   93.0015    1.8926 C.ar    1  UNL1        0.0480
     17 C          60.0655   94.4375    1.8827 C.ar    1  UNL1        0.0160
     18 C          60.0129   95.2279    0.6090 C.ar    1  UNL1        0.0190
     19 N          60.0670   96.3231   -4.0817 N.ar    1  UNL1       -0.2024
     20 N          58.7190   96.8558   -3.6953 N.ar    1  UNL1       -0.1442
     21 C          58.3526   96.2686   -2.3646 C.ar    1  UNL1        0.2073
     22 N          59.4741   95.3730   -1.9285 N.ar    1  UNL1       -0.2398
     23 C          60.5336   95.4067   -2.9898 C.ar    1  UNL1        0.3522
     24 O          61.8319   94.6558   -2.9637 O.2     1  UNL1       -0.2444
     25 C          60.8167   96.6496   -5.3393 C.3     1  UNL1        0.1099
     26 C          62.3018   96.8556   -5.2950 C.3     1  UNL1        0.0265
     27 C          59.6980   95.5362   -7.4030 C.3     1  UNL1        0.0021
     28 C          60.0812   96.7700   -6.6410 C.3     1  UNL1        0.0245
     29 O          60.0005   87.4679   10.8085 O.3     1  UNL1       -0.4712
     30 C          61.3244   87.0600   11.3839 C.3     1  UNL1        0.2374
     31 C          62.1770   88.0699   12.0934 C.3     1  UNL1        0.1909
     32 C          62.0923   89.5595   11.9389 C.3     1  UNL1        0.1783
     33 O          63.1269   90.1777   12.8319 O.3     1  UNL1       -0.3267
     34 C          63.8511   89.0701   13.5382 C.3     1  UNL1        0.2296
     35 O          63.2640   87.7674   13.0818 O.3     1  UNL1       -0.3255
     36 C          64.6233   90.1902   14.1699 C.ar    1  UNL1        0.0409
     37 C          65.7865   90.8008   13.4461 C.ar    1  UNL1        0.0022
     38 C          66.5588   91.9209   14.0777 C.ar    1  UNL1        0.0113
     39 C          66.1678   92.4304   15.4332 C.ar    1  UNL1        0.0585
     40 CL         66.9399   93.5506   16.0649 Cl      1  UNL1       -0.0822
     41 C          65.0045   91.8199   16.1571 C.ar    1  UNL1        0.0226
     42 C          64.2322   90.6997   15.5255 C.ar    1  UNL1        0.0591
     43 CL         63.0689   90.0892   16.2493 Cl      1  UNL1       -0.0824
     44 C          64.7366   88.1967   14.3766 C.3     1  UNL1        0.1682
     45 N          64.2040   86.9155   14.9464 N.ar    1  UNL1       -0.3025
     46 C          63.5502   86.7509   16.2863 C.ar    1  UNL1        0.0982
     47 C          63.1737   85.3076   16.4444 C.ar    1  UNL1        0.1193
     48 N          63.5949   84.5800   15.2021 N.ar    1  UNL1       -0.2223
     49 C          64.2316   85.5738   14.2763 C.ar    1  UNL1        0.1788
@<TRIPOS>BOND
     1    27    28    1
     2    28    25    1
     3    25    26    1
     4    25    19    1
     5    19    20   ar
     6    20    21   ar
     7    21    22   ar
     8    22    13    1
     9    13    14   ar
    10    14    15   ar
    11    15    16   ar
    12    16     7    1
    13     7     8    1
    14     8     9    1
    15     9    10    1
    16    10     1    1
    17     1     2   ar
    18     2     3   ar
    19     3     4   ar
    20     4    29    1
    21    29    30    1
    22    31    30    1
    23    31    32    1
    24    32    33    1
    25    33    34    1
    26    34    44    1
    27    44    45    1
    28    45    46   ar
    29    46    47   ar
    30    47    48   ar
    31    48    49   ar
    32    34    36    1
    33    36    37   ar
    34    37    38   ar
    35    38    39   ar
    36    39    40    1
    37    39    41   ar
    38    41    42   ar
    39    42    43    1
    40    34    35    1
    41     4     5   ar
    42     5     6   ar
    43    10    11    1
    44    11    12    1
    45    16    17   ar
    46    17    18   ar
    47    22    23   ar
    48    23    24    2
    49    23    19   ar
    50    18    13   ar
    51    12     7    1
    52     6     1   ar
    53    35    31    1
    54    49    45   ar
    55    42    36   ar
@<TRIPOS>MOLECULE
*****
 49 55 0 0 0
SMALL
GASTEIGER

@<TRIPOS>ATOM
      1 C          59.8837   89.7761    6.8290 C.ar    1  UNL1        0.1320
      2 C          60.7128   90.2484    7.9863 C.ar    1  UNL1        0.0374
      3 C          60.7525   89.4502    9.2557 C.ar    1  UNL1        0.0414
      4 C          59.9630   88.1796    9.3677 C.ar    1  UNL1        0.1579
      5 C          59.1339   87.7074    8.2103 C.ar    1  UNL1        0.1370
      6 N          59.0943   88.5056    6.9409 N.ar    1  UNL1       -0.2260
      7 N          59.7649   92.1708    3.0210 N.pl3   1  UNL1       -0.3041
      8 C          58.5073   91.9514    3.8085 C.3     1  UNL1        0.1123
      9 C          58.5469   91.1531    5.0779 C.3     1  UNL1        0.1136
     10 N          59.8441   90.5743    5.5597 N.pl3   1  UNL1       -0.2897
     11 C          61.1018   90.7938    4.7721 C.3     1  UNL1        0.1136
     12 C          61.0622   91.5920    3.5028 C.3     1  UNL1        0.1123
     13 C          59.6462   94.5656   -0.7870 C.ar    1  UNL1        0.0699
     14 C          60.1208   95.2029    0.4852 C.ar    1  UNL1        0.0190
     15 C          60.1603   94.4046    1.7545 C.ar    1  UNL1        0.0160
     16 C          59.7253   92.9691    1.7516 C.ar    1  UNL1        0.0480
     17 C          59.2508   92.3318    0.4793 C.ar    1  UNL1        0.0160
     18 C          59.2112   93.1301   -0.7900 C.ar    1  UNL1        0.0190
     19 N          60.2261   96.3352   -4.1926 N.ar    1  UNL1       -0.2024
     20 N          58.8653   96.8494   -3.8268 N.ar    1  UNL1       -0.1442
     21 C          58.4824   96.2491   -2.5066 C.ar    1  UNL1        0.2073
     22 N          59.6066   95.3639   -2.0564 N.ar    1  UNL1       -0.2398
     23 C          60.6843   95.4171   -3.0985 C.ar    1  UNL1        0.3522
     24 O          61.9907   94.6814   -3.0542 O.2     1  UNL1       -0.2444
     25 C          60.9939   96.6787   -5.4346 C.3     1  UNL1        0.1099
     26 C          60.2724   96.8553   -6.7377 C.3     1  UNL1        0.0265
     27 C          63.3580   96.1471   -6.3717 C.3     1  UNL1        0.0021
     28 C          62.4834   96.8457   -5.3734 C.3     1  UNL1        0.0245
     29 O          60.0026   87.3814   10.6370 O.3     1  UNL1       -0.4712
     30 C          59.9752   88.0806   11.9638 C.3     1  UNL1        0.2374
     31 C          61.0971   88.9976   12.3517 C.3     1  UNL1        0.1909
     32 C          61.0521   90.4969   12.3470 C.3     1  UNL1        0.1783
     33 O          62.3881   91.0023   12.8048 O.3     1  UNL1       -0.3267
     34 C          63.2589   89.8152   13.0924 C.3     1  UNL1        0.2296
     35 O          62.4610   88.5763   12.8124 O.3     1  UNL1       -0.3255
     36 C          64.2836   90.8513   13.4481 C.ar    1  UNL1        0.0409
     37 C          64.7751   90.9660   14.8606 C.ar    1  UNL1        0.0022
     38 C          65.7999   92.0022   15.2164 C.ar    1  UNL1        0.0113
     39 C          66.3330   92.9235   14.1596 C.ar    1  UNL1        0.0585
     40 CL         67.3577   93.9596   14.5153 Cl      1  UNL1       -0.0822
     41 C          65.8415   92.8088   12.7470 C.ar    1  UNL1        0.0226
     42 C          64.8167   91.7727   12.3913 C.ar    1  UNL1        0.0591
     43 CL         64.3252   91.6580   10.9788 Cl      1  UNL1       -0.0824
     44 C          64.3439   88.8449   13.4544 C.3     1  UNL1        0.1682
     45 N          64.0301   87.6541   14.3109 N.ar    1  UNL1       -0.3025
     46 C          64.0094   86.2239   13.8591 C.ar    1  UNL1        0.0982
     47 C          63.6484   85.3704   15.0385 C.ar    1  UNL1        0.1193
     48 N          63.4458   86.2730   16.2193 N.ar    1  UNL1       -0.2223
     49 C          63.6818   87.6845   15.7696 C.ar    1  UNL1        0.1788
@<TRIPOS>BOND
     1    27    28    1
     2    28    25    1
     3    25    26    1
     4    25    19    1
     5    19    20   ar
     6    20    21   ar
     7    21    22   ar
     8    22    13    1
     9    13    14   ar
    10    14    15   ar
    11    15    16   ar
    12    16     7    1
    13     7     8    1
    14     8     9    1
    15     9    10    1
    16    10     1    1
    17     1     2   ar
    18     2     3   ar
    19     3     4   ar
    20     4    29    1
    21    29    30    1
    22    31    30    1
    23    31    32    1
    24    32    33    1
    25    33    34    1
    26    34    44    1
    27    44    45    1
    28    45    46   ar
    29    46    47   ar
    30    47    48   ar
    31    48    49   ar
    32    34    36    1
    33    36    37   ar
    34    37    38   ar
    35    38    39   ar
    36    39    40    1
    37    39    41   ar
    38    41    42   ar
    39    42    43    1
    40    34    35    1
    41     4     5   ar
    42     5     6   ar
    43    10    11    1
    44    11    12    1
    45    16    17   ar
    46    17    18   ar
    47    22    23   ar
    48    23    24    2
    49    23    19   ar
    50    18    13   ar
    51    12     7    1
    52     6     1   ar
    53    35    31    1
    54    49    45   ar
    55    42    36   ar
@<TRIPOS>MOLECULE
*****
 49 55 0 0 0
SMALL
GASTEIGER

@<TRIPOS>ATOM
      1 C          59.4036   93.2434    1.9755 C.ar    1  UNL1        0.1320
      2 C          60.0375   94.6005    1.8950 C.ar    1  UNL1        0.0374
      3 C          59.7938   95.4724    0.6990 C.ar    1  UNL1        0.0414
      4 C          58.9161   94.9872   -0.4165 C.ar    1  UNL1        0.1579
      5 C          58.2822   93.6301   -0.3360 C.ar    1  UNL1        0.1370
      6 N          58.5260   92.7582    0.8600 N.ar    1  UNL1       -0.2260
      7 N          60.1349   90.6278    5.5635 N.pl3   1  UNL1       -0.3041
      8 C          58.7476   91.1079    5.2556 C.3     1  UNL1        0.1123
      9 C          58.5038   91.9798    4.0596 C.3     1  UNL1        0.1136
     10 N          59.6474   92.3716    3.1715 N.pl3   1  UNL1       -0.2897
     11 C          61.0348   91.8915    3.4794 C.3     1  UNL1        0.1136
     12 C          61.2785   91.0197    4.6754 C.3     1  UNL1        0.1123
     13 C          60.8664   88.0123    9.1515 C.ar    1  UNL1        0.0699
     14 C          61.3550   89.4305    9.1451 C.ar    1  UNL1        0.0190
     15 C          61.1111   90.3023    7.9491 C.ar    1  UNL1        0.0160
     16 C          60.3788   89.7559    6.7595 C.ar    1  UNL1        0.0480
     17 C          59.8902   88.3378    6.7659 C.ar    1  UNL1        0.0160
     18 C          60.1340   87.4660    7.9619 C.ar    1  UNL1        0.0190
     19 N          61.9439   85.3675   11.7802 N.ar    1  UNL1       -0.2024
     20 N          61.0269   86.2301   12.5959 N.ar    1  UNL1       -0.1442
     21 C          60.5117   87.3257   11.7105 C.ar    1  UNL1        0.2073
     22 N          61.1102   87.1404   10.3476 N.ar    1  UNL1       -0.2398
     23 C          61.9953   85.9302   10.3907 C.ar    1  UNL1        0.3522
     24 O          62.7921   85.3793    9.2454 O.2     1  UNL1       -0.2444
     25 C          62.6801   84.1552   12.2684 C.3     1  UNL1        0.1099
     26 C          63.3570   84.1773   13.6067 C.3     1  UNL1        0.0265
     27 C          63.9818   82.6054   10.6395 C.3     1  UNL1        0.0021
     28 C          62.7393   82.9209   11.4182 C.3     1  UNL1        0.0245
     29 O          58.6724   95.8591   -1.6125 O.3     1  UNL1       -0.4712
     30 C          59.7098   96.8551   -2.0384 C.3     1  UNL1        0.2374
     31 C          60.8583   96.4201   -2.8997 C.3     1  UNL1        0.1909
     32 C          60.7601   95.8992   -4.3030 C.3     1  UNL1        0.1783
     33 O          62.1477   95.5867   -4.7796 O.3     1  UNL1       -0.3267
     34 C          63.1034   95.9146   -3.6709 C.3     1  UNL1        0.2296
     35 O          62.3065   96.4296   -2.5091 O.3     1  UNL1       -0.3255
     36 C          64.1456   95.4477   -4.6434 C.ar    1  UNL1        0.0409
     37 C          65.0418   96.4436   -5.3179 C.ar    1  UNL1        0.0022
     38 C          66.0840   95.9767   -6.2905 C.ar    1  UNL1        0.0113
     39 C          66.2300   94.5139   -6.5885 C.ar    1  UNL1        0.0585
     40 CL         67.2722   94.0470   -7.5610 Cl      1  UNL1       -0.0822
     41 C          65.3338   93.5179   -5.9140 C.ar    1  UNL1        0.0226
     42 C          64.2916   93.9848   -4.9414 C.ar    1  UNL1        0.0591
     43 CL         63.3954   92.9889   -4.2670 Cl      1  UNL1       -0.0824
     44 C          64.2770   96.1448   -2.7655 C.3     1  UNL1        0.1682
     45 N          64.3241   95.4891   -1.4172 N.ar    1  UNL1       -0.3025
     46 C          63.8839   94.0905   -1.1011 C.ar    1  UNL1        0.0982
     47 C          64.1074   93.8539    0.3631 C.ar    1  UNL1        0.1193
     48 N          64.6859   95.1064    0.9520 N.ar    1  UNL1       -0.2223
     49 C          64.8198   96.1170   -0.1484 C.ar    1  UNL1        0.1788
@<TRIPOS>BOND
     1    27    28    1
     2    28    25    1
     3    25    26    1
     4    25    19    1
     5    19    20   ar
     6    20    21   ar
     7    21    22   ar
     8    22    13    1
     9    13    14   ar
    10    14    15   ar
    11    15    16   ar
    12    16     7    1
    13     7     8    1
    14     8     9    1
    15     9    10    1
    16    10     1    1
    17     1     2   ar
    18     2     3   ar
    19     3     4   ar
    20     4    29    1
    21    29    30    1
    22    31    30    1
    23    31    32    1
    24    32    33    1
    25    33    34    1
    26    34    44    1
    27    44    45    1
    28    45    46   ar
    29    46    47   ar
    30    47    48   ar
    31    48    49   ar
    32    34    36    1
    33    36    37   ar
    34    37    38   ar
    35    38    39   ar
    36    39    40    1
    37    39    41   ar
    38    41    42   ar
    39    42    43    1
    40    34    35    1
    41     4     5   ar
    42     5     6   ar
    43    10    11    1
    44    11    12    1
    45    16    17   ar
    46    17    18   ar
    47    22    23   ar
    48    23    24    2
    49    23    19   ar
    50    18    13   ar
    51    12     7    1
    52     6     1   ar
    53    35    31    1
    54    49    45   ar
    55    42    36   ar
@<TRIPOS>MOLECULE
*****
 49 55 0 0 0
SMALL
GASTEIGER

@<TRIPOS>ATOM
      1 C          60.1361   90.1745    6.8989 C.ar    1  UNL1        0.1320
      2 C          60.9824   90.7602    7.9900 C.ar    1  UNL1        0.0374
      3 C          61.0698   90.0746    9.3214 C.ar    1  UNL1        0.0414
      4 C          60.3108   88.8033    9.5615 C.ar    1  UNL1        0.1579
      5 C          59.4645   88.2175    8.4703 C.ar    1  UNL1        0.1370
      6 N          59.3771   88.9031    7.1390 N.ar    1  UNL1       -0.2260
      7 N          59.8740   92.2313    2.9051 N.pl3   1  UNL1       -0.3041
      8 C          61.1969   91.7328    3.4065 C.3     1  UNL1        0.1123
      9 C          61.2843   91.0471    4.7379 C.3     1  UNL1        0.1136
     10 N          60.0488   90.8601    5.5676 N.pl3   1  UNL1       -0.2897
     11 C          58.7259   91.3586    5.0661 C.3     1  UNL1        0.1136
     12 C          58.6385   92.0442    3.7349 C.3     1  UNL1        0.1123
     13 C          59.6119   94.2883   -1.0887 C.ar    1  UNL1        0.0699
     14 C          59.6425   95.0999    0.1724 C.ar    1  UNL1        0.0190
     15 C          59.7299   94.4142    1.5036 C.ar    1  UNL1        0.0160
     16 C          59.7866   92.9170    1.5738 C.ar    1  UNL1        0.0480
     17 C          59.7559   92.1053    0.3127 C.ar    1  UNL1        0.0160
     18 C          59.6685   92.7910   -1.0185 C.ar    1  UNL1        0.0190
     19 N          58.7231   95.7081   -4.5901 N.ar    1  UNL1       -0.2024
     20 N          60.0570   96.3499   -4.3471 N.ar    1  UNL1       -0.1442
     21 C          60.5522   95.8962   -3.0059 C.ar    1  UNL1        0.2073
     22 N          59.5245   94.9739   -2.4200 N.ar    1  UNL1       -0.2398
     23 C          58.3941   94.8577   -3.3991 C.ar    1  UNL1        0.3522
     24 O          57.1525   94.0354   -3.2189 O.2     1  UNL1       -0.2444
     25 C          57.8684   95.8855   -5.8100 C.3     1  UNL1        0.1099
     26 C          56.5012   96.4898   -5.6863 C.3     1  UNL1        0.0265
     27 C          58.4201   94.0031   -7.5135 C.3     1  UNL1        0.0021
     28 C          58.3810   95.4586   -7.1535 C.3     1  UNL1        0.0245
     29 O          60.3982   88.1177   10.8927 O.3     1  UNL1       -0.4712
     30 C          60.3662   88.9258   12.1560 C.3     1  UNL1        0.2374
     31 C          61.6072   89.6197   12.6340 C.3     1  UNL1        0.1909
     32 C          62.4055   90.6289   11.8632 C.3     1  UNL1        0.1783
     33 O          63.5594   91.0592   12.7195 O.3     1  UNL1       -0.3267
     34 C          63.4743   90.3159   14.0196 C.3     1  UNL1        0.2296
     35 O          62.2678   89.4263   13.9668 O.3     1  UNL1       -0.3255
     36 C          64.7173   91.0838   14.3591 C.ar    1  UNL1        0.0409
     37 C          65.8247   91.2003   13.3541 C.ar    1  UNL1        0.0022
     38 C          67.0679   91.9682   13.6935 C.ar    1  UNL1        0.0113
     39 C          67.2035   92.6195   15.0379 C.ar    1  UNL1        0.0585
     40 CL         68.4465   93.3873   15.3773 Cl      1  UNL1       -0.0822
     41 C          66.0961   92.5029   16.0429 C.ar    1  UNL1        0.0226
     42 C          64.8529   91.7351   15.7035 C.ar    1  UNL1        0.0591
     43 CL         63.7455   91.6185   16.7085 Cl      1  UNL1       -0.0824
     44 C          63.6490   89.7332   15.3907 C.3     1  UNL1        0.1682
     45 N          63.7290   88.2459   15.5689 N.ar    1  UNL1       -0.3025
     46 C          64.4231   87.2840   14.6510 C.ar    1  UNL1        0.0982
     47 C          64.2520   85.9031   15.2111 C.ar    1  UNL1        0.1193
     48 N          63.4521   86.0116   16.4754 N.ar    1  UNL1       -0.2223
     49 C          63.1288   87.4596   16.6965 C.ar    1  UNL1        0.1788
@<TRIPOS>BOND
     1    27    28    1
     2    28    25    1
     3    25    26    1
     4    25    19    1
     5    19    20   ar
     6    20    21   ar
     7    21    22   ar
     8    22    13    1
     9    13    14   ar
    10    14    15   ar
    11    15    16   ar
    12    16     7    1
    13     7     8    1
    14     8     9    1
    15     9    10    1
    16    10     1    1
    17     1     2   ar
    18     2     3   ar
    19     3     4   ar
    20     4    29    1
    21    29    30    1
    22    31    30    1
    23    31    32    1
    24    32    33    1
    25    33    34    1
    26    34    44    1
    27    44    45    1
    28    45    46   ar
    29    46    47   ar
    30    47    48   ar
    31    48    49   ar
    32    34    36    1
    33    36    37   ar
    34    37    38   ar
    35    38    39   ar
    36    39    40    1
    37    39    41   ar
    38    41    42   ar
    39    42    43    1
    40    34    35    1
    41     4     5   ar
    42     5     6   ar
    43    10    11    1
    44    11    12    1
    45    16    17   ar
    46    17    18   ar
    47    22    23   ar
    48    23    24    2
    49    23    19   ar
    50    18    13   ar
    51    12     7    1
    52     6     1   ar
    53    35    31    1
    54    49    45   ar
    55    42    36   ar
@<TRIPOS>MOLECULE
*****
 49 55 0 0 0
SMALL
GASTEIGER

@<TRIPOS>ATOM
      1 C          60.4765   90.4609    6.7382 C.ar    1  UNL1        0.1320
      2 C          59.5679   89.3403    7.1487 C.ar    1  UNL1        0.0374
      3 C          59.7083   88.7204    8.5075 C.ar    1  UNL1        0.0414
      4 C          60.7572   89.2211    9.4556 C.ar    1  UNL1        0.1579
      5 C          61.6658   90.3419    9.0449 C.ar    1  UNL1        0.1370
      6 N          61.5254   90.9617    7.6863 N.ar    1  UNL1       -0.2260
      7 N          60.0552   92.3206    2.6621 N.pl3   1  UNL1       -0.3041
      8 C          61.3973   91.8462    3.1349 C.3     1  UNL1        0.1123
      9 C          61.5378   91.2263    4.4937 C.3     1  UNL1        0.1136
     10 N          60.3361   91.0808    5.3795 N.pl3   1  UNL1       -0.2897
     11 C          58.9939   91.5553    4.9066 C.3     1  UNL1        0.1136
     12 C          58.8535   92.1751    3.5480 C.3     1  UNL1        0.1123
     13 C          59.6338   94.1803   -1.4139 C.ar    1  UNL1        0.0699
     14 C          59.4736   95.0243   -0.1842 C.ar    1  UNL1        0.0190
     15 C          59.6140   94.4044    1.1744 C.ar    1  UNL1        0.0160
     16 C          59.9148   92.9405    1.3034 C.ar    1  UNL1        0.0480
     17 C          60.0750   92.0966    0.0738 C.ar    1  UNL1        0.0160
     18 C          59.9346   92.7165   -1.2848 C.ar    1  UNL1        0.0190
     19 N          58.7698   95.2338   -5.0483 N.ar    1  UNL1       -0.2024
     20 N          59.7848   96.2746   -4.6784 N.ar    1  UNL1       -0.1442
     21 C          60.2319   96.0066   -3.2719 C.ar    1  UNL1        0.2073
     22 N          59.4934   94.8003   -2.7726 N.ar    1  UNL1       -0.2398
     23 C          58.5898   94.3227   -3.8705 C.ar    1  UNL1        0.3522
     24 O          57.6679   93.1414   -3.8025 O.2     1  UNL1       -0.2444
     25 C          58.0596   95.1236   -6.3650 C.3     1  UNL1        0.1099
     26 C          56.9672   96.0914   -6.7112 C.3     1  UNL1        0.0265
     27 C          57.7397   92.7207   -7.2996 C.3     1  UNL1        0.0021
     28 C          58.4419   94.0456   -7.3354 C.3     1  UNL1        0.0245
     29 O          60.8976   88.6013   10.8142 O.3     1  UNL1       -0.4712
     30 C          62.1907   87.9544   11.2134 C.3     1  UNL1        0.2374
     31 C          62.2330   86.4855   11.5144 C.3     1  UNL1        0.1909
     32 C          61.5480   85.4050   10.7314 C.3     1  UNL1        0.1783
     33 O          61.8593   84.0909   11.3843 O.3     1  UNL1       -0.3267
     34 C          62.7368   84.3593   12.5709 C.3     1  UNL1        0.2296
     35 O          62.9678   85.8392   12.6513 O.3     1  UNL1       -0.3255
     36 C          62.6871   82.8704   12.7462 C.ar    1  UNL1        0.0409
     37 C          61.9182   82.2750   13.8882 C.ar    1  UNL1        0.0022
     38 C          61.8684   80.7860   14.0635 C.ar    1  UNL1        0.0113
     39 C          62.5876   79.8927   13.0969 C.ar    1  UNL1        0.0585
     40 CL         62.5379   78.4038   13.2721 Cl      1  UNL1       -0.0822
     41 C          63.3565   80.4880   11.9548 C.ar    1  UNL1        0.0226
     42 C          63.4063   81.9770   11.7795 C.ar    1  UNL1        0.0591
     43 CL         64.1752   82.5724   10.6375 Cl      1  UNL1       -0.0824
     44 C          63.6039   84.3164   13.7941 C.3     1  UNL1        0.1682
     45 N          63.1592   85.0001   15.0530 N.ar    1  UNL1       -0.3025
     46 C          63.9948   85.9083   15.9055 C.ar    1  UNL1        0.0982
     47 C          63.1529   86.3651   17.0598 C.ar    1  UNL1        0.1193
     48 N          61.7969   85.7392   16.9207 N.ar    1  UNL1       -0.2223
     49 C          61.8007   84.8956   15.6804 C.ar    1  UNL1        0.1788
@<TRIPOS>BOND
     1    27    28    1
     2    28    25    1
     3    25    26    1
     4    25    19    1
     5    19    20   ar
     6    20    21   ar
     7    21    22   ar
     8    22    13    1
     9    13    14   ar
    10    14    15   ar
    11    15    16   ar
    12    16     7    1
    13     7     8    1
    14     8     9    1
    15     9    10    1
    16    10     1    1
    17     1     2   ar
    18     2     3   ar
    19     3     4   ar
    20     4    29    1
    21    29    30    1
    22    31    30    1
    23    31    32    1
    24    32    33    1
    25    33    34    1
    26    34    44    1
    27    44    45    1
    28    45    46   ar
    29    46    47   ar
    30    47    48   ar
    31    48    49   ar
    32    34    36    1
    33    36    37   ar
    34    37    38   ar
    35    38    39   ar
    36    39    40    1
    37    39    41   ar
    38    41    42   ar
    39    42    43    1
    40    34    35    1
    41     4     5   ar
    42     5     6   ar
    43    10    11    1
    44    11    12    1
    45    16    17   ar
    46    17    18   ar
    47    22    23   ar
    48    23    24    2
    49    23    19   ar
    50    18    13   ar
    51    12     7    1
    52     6     1   ar
    53    35    31    1
    54    49    45   ar
    55    42    36   ar
@<TRIPOS>MOLECULE
*****
 49 55 0 0 0
SMALL
GASTEIGER

@<TRIPOS>ATOM
      1 C          60.1336   89.8129    7.3251 C.ar    1  UNL1        0.1320
      2 C          59.5514   88.4341    7.4251 C.ar    1  UNL1        0.0374
      3 C          59.7051   87.6451    8.6916 C.ar    1  UNL1        0.0414
      4 C          60.4410   88.2348    9.8580 C.ar    1  UNL1        0.1579
      5 C          61.0233   89.6137    9.7580 C.ar    1  UNL1        0.1370
      6 N          60.8696   90.4026    8.4916 N.ar    1  UNL1       -0.2260
      7 N          59.6726   92.1798    3.5258 N.pl3   1  UNL1       -0.3041
      8 C          58.4682   91.8589    4.3603 C.3     1  UNL1        0.1123
      9 C          58.6219   91.0699    5.6268 C.3     1  UNL1        0.1136
     10 N          59.9799   90.6018    6.0587 N.pl3   1  UNL1       -0.2897
     11 C          61.1843   90.9227    5.2241 C.3     1  UNL1        0.1136
     12 C          61.0306   91.7116    3.9576 C.3     1  UNL1        0.1123
     13 C          59.2116   94.5468   -0.2735 C.ar    1  UNL1        0.0699
     14 C          59.8679   95.1693    0.9230 C.ar    1  UNL1        0.0190
     15 C          60.0216   94.3803    2.1894 C.ar    1  UNL1        0.0160
     16 C          59.5189   92.9688    2.2593 C.ar    1  UNL1        0.0480
     17 C          58.8626   92.3462    1.0628 C.ar    1  UNL1        0.0160
     18 C          58.7089   93.1352   -0.2036 C.ar    1  UNL1        0.0190
     19 N          58.1425   96.2492   -3.5938 N.ar    1  UNL1       -0.2024
     20 N          59.5006   96.8506   -3.3839 N.ar    1  UNL1       -0.1442
     21 C          60.0663   96.2861   -2.1146 C.ar    1  UNL1        0.2073
     22 N          59.0580   95.3358   -1.5400 N.ar    1  UNL1       -0.2398
     23 C          57.8690   95.3130   -2.4542 C.ar    1  UNL1        0.3522
     24 O          56.6249   94.4973   -2.2625 O.2     1  UNL1       -0.2444
     25 C          57.2200   96.5340   -4.7418 C.3     1  UNL1        0.1099
     26 C          57.7395   96.4971   -6.1484 C.3     1  UNL1        0.0265
     27 C          54.7475   95.7667   -4.5233 C.3     1  UNL1        0.0021
     28 C          55.7779   96.8558   -4.4831 C.3     1  UNL1        0.0245
     29 O          60.5948   87.4459   11.1244 O.3     1  UNL1       -0.4712
     30 C          61.9522   86.9735   11.5537 C.3     1  UNL1        0.2374
     31 C          62.8453   87.8800   12.3478 C.3     1  UNL1        0.1909
     32 C          63.8566   87.4487   13.3682 C.3     1  UNL1        0.1783
     33 O          64.5203   88.6790   13.9120 O.3     1  UNL1       -0.3267
     34 C          63.9192   89.8708   13.2275 C.3     1  UNL1        0.2296
     35 O          62.8841   89.3770   12.2608 O.3     1  UNL1       -0.3255
     36 C          64.8703   90.6477   14.0888 C.ar    1  UNL1        0.0409
     37 C          66.2729   90.8986   13.6198 C.ar    1  UNL1        0.0022
     38 C          67.2241   91.6755   14.4811 C.ar    1  UNL1        0.0113
     39 C          66.7727   92.2015   15.8113 C.ar    1  UNL1        0.0585
     40 CL         67.7238   92.9784   16.6726 Cl      1  UNL1       -0.0822
     41 C          65.3701   91.9507   16.2804 C.ar    1  UNL1        0.0226
     42 C          64.4189   91.1737   15.4191 C.ar    1  UNL1        0.0591
     43 CL         63.0164   90.9228   15.8880 Cl      1  UNL1       -0.0824
     44 C          63.5171   91.2250   12.7232 C.3     1  UNL1        0.1682
     45 N          64.4595   92.0161   11.8652 N.ar    1  UNL1       -0.3025
     46 C          65.3317   93.1467   12.3243 C.ar    1  UNL1        0.0982
     47 C          66.1064   93.6449   11.1404 C.ar    1  UNL1        0.1193
     48 N          65.7129   92.8221    9.9495 N.ar    1  UNL1       -0.2223
     49 C          64.6950   91.8155   10.3975 C.ar    1  UNL1        0.1788
@<TRIPOS>BOND
     1    27    28    1
     2    28    25    1
     3    25    26    1
     4    25    19    1
     5    19    20   ar
     6    20    21   ar
     7    21    22   ar
     8    22    13    1
     9    13    14   ar
    10    14    15   ar
    11    15    16   ar
    12    16     7    1
    13     7     8    1
    14     8     9    1
    15     9    10    1
    16    10     1    1
    17     1     2   ar
    18     2     3   ar
    19     3     4   ar
    20     4    29    1
    21    29    30    1
    22    31    30    1
    23    31    32    1
    24    32    33    1
    25    33    34    1
    26    34    44    1
    27    44    45    1
    28    45    46   ar
    29    46    47   ar
    30    47    48   ar
    31    48    49   ar
    32    34    36    1
    33    36    37   ar
    34    37    38   ar
    35    38    39   ar
    36    39    40    1
    37    39    41   ar
    38    41    42   ar
    39    42    43    1
    40    34    35    1
    41     4     5   ar
    42     5     6   ar
    43    10    11    1
    44    11    12    1
    45    16    17   ar
    46    17    18   ar
    47    22    23   ar
    48    23    24    2
    49    23    19   ar
    50    18    13   ar
    51    12     7    1
    52     6     1   ar
    53    35    31    1
    54    49    45   ar
    55    42    36   ar
@<TRIPOS>MOLECULE
*****
 49 55 0 0 0
SMALL
GASTEIGER

@<TRIPOS>ATOM
      1 C          60.5603   90.5149    6.6286 C.ar    1  UNL1        0.1320
      2 C          59.5621   89.4783    7.0516 C.ar    1  UNL1        0.0374
      3 C          59.6501   88.8657    8.4181 C.ar    1  UNL1        0.0414
      4 C          60.7365   89.2898    9.3615 C.ar    1  UNL1        0.1579
      5 C          61.7348   90.3265    8.9384 C.ar    1  UNL1        0.1370
      6 N          61.6467   90.9390    7.5721 N.ar    1  UNL1       -0.2260
      7 N          60.2961   92.3523    2.5294 N.pl3   1  UNL1       -0.3041
      8 C          59.0878   92.3235    3.4176 C.3     1  UNL1        0.1123
      9 C          59.1758   91.7110    4.7841 C.3     1  UNL1        0.1136
     10 N          60.4723   91.1273    5.2623 N.pl3   1  UNL1       -0.2897
     11 C          61.6806   91.1562    4.3739 C.3     1  UNL1        0.1136
     12 C          61.5926   91.7687    3.0076 C.3     1  UNL1        0.1123
     13 C          60.0320   94.1899   -1.5698 C.ar    1  UNL1        0.0699
     14 C          60.6771   94.9484   -0.4480 C.ar    1  UNL1        0.0190
     15 C          60.7651   94.3359    0.9183 C.ar    1  UNL1        0.0160
     16 C          60.2081   92.9648    1.1629 C.ar    1  UNL1        0.0480
     17 C          59.5630   92.2063    0.0412 C.ar    1  UNL1        0.0160
     18 C          59.4750   92.8188   -1.3252 C.ar    1  UNL1        0.0190
     19 N          60.5277   95.5719   -5.1629 N.ar    1  UNL1       -0.2024
     20 N          59.0892   95.9179   -4.9151 N.ar    1  UNL1       -0.1442
     21 C          58.7285   95.4422   -3.5390 C.ar    1  UNL1        0.2073
     22 N          59.9440   94.8024   -2.9363 N.ar    1  UNL1       -0.2398
     23 C          61.0559   94.8825   -3.9399 C.ar    1  UNL1        0.3522
     24 O          62.4511   94.3643   -3.7533 O.2     1  UNL1       -0.2444
     25 C          61.3019   95.8641   -6.4139 C.3     1  UNL1        0.1099
     26 C          60.7710   96.8507   -7.4113 C.3     1  UNL1        0.0265
     27 C          62.6203   93.7837   -7.2406 C.3     1  UNL1        0.0021
     28 C          62.6071   95.1698   -6.6677 C.3     1  UNL1        0.0245
     29 O          60.8246   88.6773   10.7279 O.3     1  UNL1       -0.4712
     30 C          62.1095   88.0567   11.1901 C.3     1  UNL1        0.2374
     31 C          62.1776   86.5816   11.4540 C.3     1  UNL1        0.1909
     32 C          61.4671   85.5132   10.6770 C.3     1  UNL1        0.1783
     33 O          61.8185   84.1873   11.2839 O.3     1  UNL1       -0.3267
     34 C          62.7462   84.4362   12.4361 C.3     1  UNL1        0.2296
     35 O          62.9681   85.9160   12.5412 O.3     1  UNL1       -0.3255
     36 C          62.7170   82.9433   12.5780 C.ar    1  UNL1        0.0409
     37 C          61.9522   82.3117   13.7033 C.ar    1  UNL1        0.0022
     38 C          61.9229   80.8187   13.8453 C.ar    1  UNL1        0.0113
     39 C          62.6584   79.9573   12.8621 C.ar    1  UNL1        0.0585
     40 CL         62.6291   78.4643   13.0040 Cl      1  UNL1       -0.0822
     41 C          63.4232   80.5887   11.7367 C.ar    1  UNL1        0.0226
     42 C          63.4525   82.0818   11.5947 C.ar    1  UNL1        0.0591
     43 CL         64.2173   82.7133   10.4695 Cl      1  UNL1       -0.0824
     44 C          63.6678   84.3730   13.6179 C.3     1  UNL1        0.1682
     45 N          63.3168   85.0996   14.8824 N.ar    1  UNL1       -0.3025
     46 C          63.9673   86.3526   15.3889 C.ar    1  UNL1        0.0982
     47 C          63.3062   86.7281   16.6819 C.ar    1  UNL1        0.1193
     48 N          62.2470   85.7071   16.9746 N.ar    1  UNL1       -0.2223
     49 C          62.2536   84.7006   15.8624 C.ar    1  UNL1        0.1788
@<TRIPOS>BOND
     1    27    28    1
     2    28    25    1
     3    25    26    1
     4    25    19    1
     5    19    20   ar
     6    20    21   ar
     7    21    22   ar
     8    22    13    1
     9    13    14   ar
    10    14    15   ar
    11    15    16   ar
    12    16     7    1
    13     7     8    1
    14     8     9    1
    15     9    10    1
    16    10     1    1
    17     1     2   ar
    18     2     3   ar
    19     3     4   ar
    20     4    29    1
    21    29    30    1
    22    31    30    1
    23    31    32    1
    24    32    33    1
    25    33    34    1
    26    34    44    1
    27    44    45    1
    28    45    46   ar
    29    46    47   ar
    30    47    48   ar
    31    48    49   ar
    32    34    36    1
    33    36    37   ar
    34    37    38   ar
    35    38    39   ar
    36    39    40    1
    37    39    41   ar
    38    41    42   ar
    39    42    43    1
    40    34    35    1
    41     4     5   ar
    42     5     6   ar
    43    10    11    1
    44    11    12    1
    45    16    17   ar
    46    17    18   ar
    47    22    23   ar
    48    23    24    2
    49    23    19   ar
    50    18    13   ar
    51    12     7    1
    52     6     1   ar
    53    35    31    1
    54    49    45   ar
    55    42    36   ar
