@<TRIPOS>MOLECULE
*****
 34 37 0 0 0
SMALL
GASTEIGER

@<TRIPOS>ATOM
      1 C          60.1390   89.4992    9.5479 C.3     1  UNL1        0.0899
      2 C          60.6069   89.5772   10.9709 C.2     1  UNL1        0.2260
      3 O          59.7835   88.9662   12.0657 O.2     1  UNL1       -0.2749
      4 N          61.8983   90.2661   11.2990 N.am    1  UNL1       -0.2794
      5 C          62.7217   90.8771   10.2042 C.3     1  UNL1        0.0951
      6 C          64.0131   91.5661   10.5323 C.3     1  UNL1        0.0410
      7 C          64.4811   91.6441   11.9553 C.3     1  UNL1        0.0724
      8 C          63.6576   91.0331   13.0501 C.3     1  UNL1        0.0410
      9 C          62.3663   90.3441   12.7220 C.3     1  UNL1        0.0951
     10 N          65.7724   92.3330   12.2834 N.pl3   1  UNL1       -0.3339
     11 H          66.1138   92.3250   13.2068 H       1  UNL1        0.1468
     12 C          66.5437   93.0342   11.2047 C.ar    1  UNL1        0.0469
     13 C          66.3293   94.4985   10.9603 C.ar    1  UNL1        0.0144
     14 C          67.1005   95.1997    9.8816 C.ar    1  UNL1        0.0036
     15 C          68.0861   94.4365    9.0473 C.ar    1  UNL1        0.0297
     16 C          68.3005   92.9721    9.2917 C.ar    1  UNL1        0.1414
     17 F          69.2861   92.2089    8.4573 F       1  UNL1       -0.2041
     18 C          67.5293   92.2710   10.3704 C.ar    1  UNL1        0.0439
     19 C          60.2282   88.2025    8.7990 C.3     1  UNL1        0.0359
     20 C          62.8078   84.8681   10.3732 C.ar    1  UNL1       -0.0062
     21 C          61.8313   85.5540   11.2821 C.ar    1  UNL1       -0.0032
     22 C          60.9715   86.6655   10.7574 C.ar    1  UNL1       -0.0045
     23 C          61.0881   87.0910    9.3237 C.ar    1  UNL1       -0.0217
     24 C          62.0645   86.4052    8.4148 C.ar    1  UNL1       -0.0045
     25 C          62.9244   85.2937    8.9396 C.ar    1  UNL1       -0.0032
     26 C          63.6677   83.7567   10.8979 C.3     1  UNL1        0.0992
     27 C          61.0276   80.6178   14.0882 C.3     1  UNL1        0.0186
     28 C          62.1059   81.6369   13.8673 C.3     1  UNL1        0.0703
     29 C          62.3477   82.1872   12.4931 C.3     1  UNL1        0.0882
     30 N          63.4259   83.2063   12.2722 N.3     1  UNL1       -0.2666
     31 C          64.2625   83.6751   13.4257 C.3     1  UNL1        0.0897
     32 C          64.0207   83.1247   14.7999 C.3     1  UNL1        0.0861
     33 N          62.9425   82.1056   15.0207 N.3     1  UNL1       -0.2963
     34 H          62.3009   82.5001   15.7086 H       1  UNL1        0.1233
@<TRIPOS>BOND
     1    28    27    1
     2    28    29    1
     3    29    30    1
     4    30    26    1
     5    26    20    1
     6    20    21   ar
     7    21    22   ar
     8    22    23   ar
     9    23    19    1
    10    19     1    1
    11     1     2    1
    12     2     3    2
    13     2     4   am
    14     4     5    1
    15     5     6    1
    16     6     7    1
    17     7    10    1
    18    10    12    1
    19    12    13   ar
    20    13    14   ar
    21    14    15   ar
    22    15    16   ar
    23    16    17    1
    24    16    18   ar
    25     7     8    1
    26     8     9    1
    27    23    24   ar
    28    24    25   ar
    29    30    31    1
    30    31    32    1
    31    32    33    1
    32    33    28    1
    33    25    20   ar
    34     9     4    1
    35    18    12   ar
    36    10    11    1
    37    33    34    1
@<TRIPOS>MOLECULE
*****
 34 37 0 0 0
SMALL
GASTEIGER

@<TRIPOS>ATOM
      1 C          62.8547   84.2135   15.6449 C.3     1  UNL1        0.0899
      2 C          63.3705   83.4178   14.4827 C.2     1  UNL1        0.2260
      3 O          64.0822   82.1188   14.7199 O.2     1  UNL1       -0.2749
      4 N          63.1745   83.9209   13.0832 N.am    1  UNL1       -0.2794
      5 C          62.4627   85.2198   12.8461 C.3     1  UNL1        0.0951
      6 C          62.2667   85.7229   11.4466 C.3     1  UNL1        0.0410
      7 C          62.7824   84.9272   10.2843 C.3     1  UNL1        0.0724
      8 C          63.4942   83.6282   10.5216 C.3     1  UNL1        0.0410
      9 C          63.6902   83.1251   11.9210 C.3     1  UNL1        0.0951
     10 N          62.5864   85.4303    8.8849 N.pl3   1  UNL1       -0.3339
     11 H          63.2085   85.1577    8.1722 H       1  UNL1        0.1468
     12 C          61.4425   86.3486    8.5714 C.ar    1  UNL1        0.0469
     13 C          60.3267   85.8811    7.6845 C.ar    1  UNL1        0.0144
     14 C          59.1829   86.7994    7.3710 C.ar    1  UNL1        0.0036
     15 C          59.1548   88.1852    7.9443 C.ar    1  UNL1        0.0297
     16 C          60.2706   88.6527    8.8311 C.ar    1  UNL1        0.1414
     17 F          60.2425   90.0386    9.4044 F       1  UNL1       -0.2041
     18 C          61.4144   87.7344    9.1446 C.ar    1  UNL1        0.0439
     19 C          63.7697   85.1490   16.3784 C.3     1  UNL1        0.0359
     20 C          63.7086   89.5502   15.4427 C.ar    1  UNL1       -0.0062
     21 C          64.3946   88.5950   14.5116 C.ar    1  UNL1       -0.0032
     22 C          64.4150   87.1279   14.8235 C.ar    1  UNL1       -0.0045
     23 C          63.7493   86.6161   16.0665 C.ar    1  UNL1       -0.0217
     24 C          63.0634   87.5713   16.9975 C.ar    1  UNL1       -0.0045
     25 C          63.0430   89.0384   16.6857 C.ar    1  UNL1       -0.0032
     26 C          63.6883   91.0173   15.1309 C.3     1  UNL1        0.0992
     27 C          68.2729   93.3730   15.7882 C.3     1  UNL1        0.0186
     28 C          67.1965   92.8557   14.8806 C.3     1  UNL1        0.0703
     29 C          65.9806   92.1952   15.4595 C.3     1  UNL1        0.0882
     30 N          64.9042   91.6779   14.5519 N.3     1  UNL1       -0.2666
     31 C          65.0437   91.8212   13.0653 C.3     1  UNL1        0.0897
     32 C          66.2596   92.4818   12.4864 C.3     1  UNL1        0.0861
     33 N          67.3360   92.9991   13.3940 N.3     1  UNL1       -0.2963
     34 H          67.4291   93.9965   13.2018 H       1  UNL1        0.1233
@<TRIPOS>BOND
     1    28    27    1
     2    28    29    1
     3    29    30    1
     4    30    26    1
     5    26    20    1
     6    20    21   ar
     7    21    22   ar
     8    22    23   ar
     9    23    19    1
    10    19     1    1
    11     1     2    1
    12     2     3    2
    13     2     4   am
    14     4     5    1
    15     5     6    1
    16     6     7    1
    17     7    10    1
    18    10    12    1
    19    12    13   ar
    20    13    14   ar
    21    14    15   ar
    22    15    16   ar
    23    16    17    1
    24    16    18   ar
    25     7     8    1
    26     8     9    1
    27    23    24   ar
    28    24    25   ar
    29    30    31    1
    30    31    32    1
    31    32    33    1
    32    33    28    1
    33    25    20   ar
    34     9     4    1
    35    18    12   ar
    36    10    11    1
    37    33    34    1
@<TRIPOS>MOLECULE
*****
 34 37 0 0 0
SMALL
GASTEIGER

@<TRIPOS>ATOM
      1 C          62.8008   83.3588   15.3374 C.3     1  UNL1        0.0899
      2 C          63.3058   82.7206   14.0774 C.2     1  UNL1        0.2260
      3 O          63.9576   81.3706   14.1297 O.2     1  UNL1       -0.2749
      4 N          63.1591   83.4323   12.7652 N.am    1  UNL1       -0.2794
      5 C          62.5074   84.7822   12.7130 C.3     1  UNL1        0.0951
      6 C          62.3606   85.4940   11.4008 C.3     1  UNL1        0.0410
      7 C          62.8656   84.8558   10.1408 C.3     1  UNL1        0.0724
      8 C          63.5174   83.5057   10.1930 C.3     1  UNL1        0.0410
      9 C          63.6642   82.7940   11.5052 C.3     1  UNL1        0.0951
     10 N          62.7189   85.5675    8.8286 N.pl3   1  UNL1       -0.3339
     11 H          63.4113   85.4698    8.1355 H       1  UNL1        0.1468
     12 C          61.5172   86.4279    8.5723 C.ar    1  UNL1        0.0469
     13 C          60.3963   85.9153    7.7175 C.ar    1  UNL1        0.0144
     14 C          59.1947   86.7757    7.4611 C.ar    1  UNL1        0.0036
     15 C          59.1140   88.1487    8.0596 C.ar    1  UNL1        0.0297
     16 C          60.2349   88.6613    8.9145 C.ar    1  UNL1        0.1414
     17 F          60.1541   90.0344    9.5130 F       1  UNL1       -0.2041
     18 C          61.4365   87.8010    9.1708 C.ar    1  UNL1        0.0439
     19 C          63.7182   84.2055   16.1691 C.3     1  UNL1        0.0359
     20 C          63.6723   88.6828   15.7197 C.ar    1  UNL1       -0.0062
     21 C          62.9908   88.0396   16.8910 C.ar    1  UNL1       -0.0032
     22 C          63.0061   86.5472   17.0408 C.ar    1  UNL1       -0.0045
     23 C          63.7029   85.6979   16.0193 C.ar    1  UNL1       -0.0217
     24 C          64.3844   86.3412   14.8481 C.ar    1  UNL1       -0.0045
     25 C          64.3691   87.8336   14.6983 C.ar    1  UNL1       -0.0032
     26 C          63.6570   90.1752   15.5699 C.3     1  UNL1        0.0992
     27 C          63.1940   91.1476   10.4866 C.3     1  UNL1        0.0186
     28 C          63.9501   91.2946   11.7737 C.3     1  UNL1        0.0703
     29 C          63.4255   90.6614   13.0282 C.3     1  UNL1        0.0882
     30 N          64.1816   90.8085   14.3153 N.3     1  UNL1       -0.2666
     31 C          65.4623   91.5887   14.3479 C.3     1  UNL1        0.0897
     32 C          65.9868   92.2219   13.0934 C.3     1  UNL1        0.0861
     33 N          65.2307   92.0749   11.8063 N.3     1  UNL1       -0.2963
     34 H          65.8639   91.6295   11.1421 H       1  UNL1        0.1233
@<TRIPOS>BOND
     1    28    27    1
     2    28    29    1
     3    29    30    1
     4    30    26    1
     5    26    20    1
     6    20    21   ar
     7    21    22   ar
     8    22    23   ar
     9    23    19    1
    10    19     1    1
    11     1     2    1
    12     2     3    2
    13     2     4   am
    14     4     5    1
    15     5     6    1
    16     6     7    1
    17     7    10    1
    18    10    12    1
    19    12    13   ar
    20    13    14   ar
    21    14    15   ar
    22    15    16   ar
    23    16    17    1
    24    16    18   ar
    25     7     8    1
    26     8     9    1
    27    23    24   ar
    28    24    25   ar
    29    30    31    1
    30    31    32    1
    31    32    33    1
    32    33    28    1
    33    25    20   ar
    34     9     4    1
    35    18    12   ar
    36    10    11    1
    37    33    34    1
@<TRIPOS>MOLECULE
*****
 34 37 0 0 0
SMALL
GASTEIGER

@<TRIPOS>ATOM
      1 C          64.2978   84.0135   15.2953 C.3     1  UNL1        0.0899
      2 C          63.5281   84.9977   16.1253 C.2     1  UNL1        0.2260
      3 O          62.6343   84.5121   17.2278 O.2     1  UNL1       -0.2749
      4 N          63.6521   86.4675   15.8528 N.am    1  UNL1       -0.2794
      5 C          64.5458   86.9531   14.7504 C.3     1  UNL1        0.0951
      6 C          64.6698   88.4229   14.4778 C.3     1  UNL1        0.0410
      7 C          63.9001   89.4072   15.3078 C.3     1  UNL1        0.0724
      8 C          63.0064   88.9215   16.4103 C.3     1  UNL1        0.0410
      9 C          62.8824   87.4517   16.6828 C.3     1  UNL1        0.0951
     10 N          64.0241   90.8769   15.0353 N.pl3   1  UNL1       -0.3339
     11 H          63.8075   91.5284   15.7410 H       1  UNL1        0.1468
     12 C          64.4782   91.3542   13.6877 C.ar    1  UNL1        0.0469
     13 C          65.7995   92.0497   13.5444 C.ar    1  UNL1        0.0144
     14 C          66.2536   92.5269   12.1968 C.ar    1  UNL1        0.0036
     15 C          65.3864   92.3088   10.9926 C.ar    1  UNL1        0.0297
     16 C          64.0651   91.6133   11.1359 C.ar    1  UNL1        0.1414
     17 F          63.1979   91.3952    9.9315 F       1  UNL1       -0.2041
     18 C          63.6110   91.1361   12.4834 C.ar    1  UNL1        0.0439
     19 C          63.5901   83.1893   14.2609 C.3     1  UNL1        0.0359
     20 C          62.8415   84.8843   10.1601 C.ar    1  UNL1       -0.0062
     21 C          62.1659   85.4877   11.3558 C.ar    1  UNL1       -0.0032
     22 C          62.4154   84.9227   12.7227 C.ar    1  UNL1       -0.0045
     23 C          63.3405   83.7543   12.8939 C.ar    1  UNL1       -0.0217
     24 C          64.0160   83.1511   11.6983 C.ar    1  UNL1       -0.0045
     25 C          63.7665   83.7161   10.3313 C.ar    1  UNL1       -0.0032
     26 C          62.5920   85.4493    8.7931 C.3     1  UNL1        0.0992
     27 C          60.1844   89.9658    9.6906 C.3     1  UNL1        0.0186
     28 C          60.2271   88.6289    9.0117 C.3     1  UNL1        0.0703
     29 C          61.3881   87.7076    9.2418 C.3     1  UNL1        0.0882
     30 N          61.4308   86.3707    8.5629 N.3     1  UNL1       -0.2666
     31 C          60.3124   85.9552    7.6538 C.3     1  UNL1        0.0897
     32 C          59.1514   86.8765    7.4236 C.3     1  UNL1        0.0861
     33 N          59.1087   88.2134    8.1026 N.3     1  UNL1       -0.2963
     34 H          58.2540   88.2340    8.6588 H       1  UNL1        0.1233
@<TRIPOS>BOND
     1    28    27    1
     2    28    29    1
     3    29    30    1
     4    30    26    1
     5    26    20    1
     6    20    21   ar
     7    21    22   ar
     8    22    23   ar
     9    23    19    1
    10    19     1    1
    11     1     2    1
    12     2     3    2
    13     2     4   am
    14     4     5    1
    15     5     6    1
    16     6     7    1
    17     7    10    1
    18    10    12    1
    19    12    13   ar
    20    13    14   ar
    21    14    15   ar
    22    15    16   ar
    23    16    17    1
    24    16    18   ar
    25     7     8    1
    26     8     9    1
    27    23    24   ar
    28    24    25   ar
    29    30    31    1
    30    31    32    1
    31    32    33    1
    32    33    28    1
    33    25    20   ar
    34     9     4    1
    35    18    12   ar
    36    10    11    1
    37    33    34    1
@<TRIPOS>MOLECULE
*****
 34 37 0 0 0
SMALL
GASTEIGER

@<TRIPOS>ATOM
      1 C          64.6491   82.1743   12.3182 C.3     1  UNL1        0.0899
      2 C          63.6933   82.2558   13.4714 C.2     1  UNL1        0.2260
      3 O          62.8553   81.0664   13.8364 O.2     1  UNL1       -0.2749
      4 N          63.5755   83.5265   14.2596 N.am    1  UNL1       -0.2794
      5 C          64.4135   84.7158   13.8946 C.3     1  UNL1        0.0951
      6 C          64.2957   85.9867   14.6828 C.3     1  UNL1        0.0410
      7 C          63.3400   86.0681   15.8360 C.3     1  UNL1        0.0724
      8 C          62.5019   84.8787   16.2009 C.3     1  UNL1        0.0410
      9 C          62.6197   83.6080   15.4128 C.3     1  UNL1        0.0951
     10 N          63.2222   87.3389   16.6241 N.pl3   1  UNL1       -0.3339
     11 H          62.8771   87.3162   17.5459 H       1  UNL1        0.1468
     12 C          63.6302   88.6442   16.0079 C.ar    1  UNL1        0.0469
     13 C          64.1711   88.6767   14.6092 C.ar    1  UNL1        0.0144
     14 C          64.5791   89.9820   13.9930 C.ar    1  UNL1        0.0036
     15 C          64.4462   91.2547   14.7755 C.ar    1  UNL1        0.0297
     16 C          63.9054   91.2223   16.1742 C.ar    1  UNL1        0.1414
     17 F          63.7725   92.4951   16.9567 F       1  UNL1       -0.2041
     18 C          63.4973   89.9170   16.7904 C.ar    1  UNL1        0.0439
     19 C          64.1373   82.2723   10.9116 C.3     1  UNL1        0.0359
     20 C          62.0207   85.9998    9.5419 C.ar    1  UNL1       -0.0062
     21 C          63.0084   85.3231    8.6381 C.ar    1  UNL1       -0.0032
     22 C          63.7139   84.0806    9.0947 C.ar    1  UNL1       -0.0045
     23 C          63.4318   83.5148   10.4550 C.ar    1  UNL1       -0.0217
     24 C          62.4441   84.1915   11.3586 C.ar    1  UNL1       -0.0045
     25 C          61.7386   85.4340   10.9021 C.ar    1  UNL1       -0.0032
     26 C          61.3152   87.2423    9.0853 C.3     1  UNL1        0.0992
     27 C          63.7223   91.5120   10.8102 C.3     1  UNL1        0.0186
     28 C          62.5279   90.6045   10.8099 C.3     1  UNL1        0.0703
     29 C          62.5187   89.3771    9.9478 C.3     1  UNL1        0.0882
     30 N          61.3243   88.4697    9.9475 N.3     1  UNL1       -0.2666
     31 C          60.1391   88.7897   10.8094 C.3     1  UNL1        0.0897
     32 C          60.1483   90.0171   11.6715 C.3     1  UNL1        0.0861
     33 N          61.3427   90.9245   11.6718 N.3     1  UNL1       -0.2963
     34 H          61.6806   90.9663   12.6333 H       1  UNL1        0.1233
@<TRIPOS>BOND
     1    28    27    1
     2    28    29    1
     3    29    30    1
     4    30    26    1
     5    26    20    1
     6    20    21   ar
     7    21    22   ar
     8    22    23   ar
     9    23    19    1
    10    19     1    1
    11     1     2    1
    12     2     3    2
    13     2     4   am
    14     4     5    1
    15     5     6    1
    16     6     7    1
    17     7    10    1
    18    10    12    1
    19    12    13   ar
    20    13    14   ar
    21    14    15   ar
    22    15    16   ar
    23    16    17    1
    24    16    18   ar
    25     7     8    1
    26     8     9    1
    27    23    24   ar
    28    24    25   ar
    29    30    31    1
    30    31    32    1
    31    32    33    1
    32    33    28    1
    33    25    20   ar
    34     9     4    1
    35    18    12   ar
    36    10    11    1
    37    33    34    1
@<TRIPOS>MOLECULE
*****
 34 37 0 0 0
SMALL
GASTEIGER

@<TRIPOS>ATOM
      1 C          60.1432   89.7127   10.4346 C.3     1  UNL1        0.0899
      2 C          60.5234   88.7637    9.3369 C.2     1  UNL1        0.2260
      3 O          60.1437   89.0676    7.9178 O.2     1  UNL1       -0.2749
      4 N          61.2832   87.5110    9.6582 N.am    1  UNL1       -0.2794
      5 C          61.6629   87.2072   11.0771 C.3     1  UNL1        0.0951
      6 C          62.4228   85.9544   11.3985 C.3     1  UNL1        0.0410
      7 C          62.8029   85.0055   10.3008 C.3     1  UNL1        0.0724
      8 C          62.4232   85.3093    8.8817 C.3     1  UNL1        0.0410
      9 C          61.6634   86.5620    8.5605 C.3     1  UNL1        0.0951
     10 N          63.5628   83.7527   10.6220 N.pl3   1  UNL1       -0.3339
     11 H          64.3319   83.4877   10.0676 H       1  UNL1        0.1468
     12 C          63.1507   82.9038   11.7881 C.ar    1  UNL1        0.0469
     13 C          62.8801   81.4414   11.5925 C.ar    1  UNL1        0.0144
     14 C          62.4681   80.5925   12.7585 C.ar    1  UNL1        0.0036
     15 C          62.3266   81.2059   14.1199 C.ar    1  UNL1        0.0297
     16 C          62.5972   82.6683   14.3155 C.ar    1  UNL1        0.1414
     17 F          62.4557   83.2817   15.6770 F       1  UNL1       -0.2041
     18 C          63.0093   83.5172   13.1495 C.ar    1  UNL1        0.0439
     19 C          60.8613   89.6635   11.7507 C.3     1  UNL1        0.0359
     20 C          64.8512   91.6922   12.2141 C.ar    1  UNL1       -0.0062
     21 C          64.2534   90.9410   13.3667 C.ar    1  UNL1       -0.0032
     22 C          62.9234   90.2648   13.2123 C.ar    1  UNL1       -0.0045
     23 C          62.1912   90.3397   11.9052 C.ar    1  UNL1       -0.0217
     24 C          62.7891   91.0909   10.7527 C.ar    1  UNL1       -0.0045
     25 C          64.1190   91.7671   10.9071 C.ar    1  UNL1       -0.0032
     26 C          66.1811   92.3685   12.3686 C.3     1  UNL1        0.0992
     27 C          66.7746   96.8552    9.8158 C.3     1  UNL1        0.0186
     28 C          67.0613   95.3890    9.9495 C.3     1  UNL1        0.0703
     29 C          66.4779   94.6119   11.0922 C.3     1  UNL1        0.0882
     30 N          66.7646   93.1456   11.2259 N.3     1  UNL1       -0.2666
     31 C          67.6347   92.4565   10.2170 C.3     1  UNL1        0.0897
     32 C          68.2181   93.2336    9.0744 C.3     1  UNL1        0.0861
     33 N          67.9314   94.6998    8.9406 N.3     1  UNL1       -0.2963
     34 H          67.4888   94.8316    8.0311 H       1  UNL1        0.1233
@<TRIPOS>BOND
     1    28    27    1
     2    28    29    1
     3    29    30    1
     4    30    26    1
     5    26    20    1
     6    20    21   ar
     7    21    22   ar
     8    22    23   ar
     9    23    19    1
    10    19     1    1
    11     1     2    1
    12     2     3    2
    13     2     4   am
    14     4     5    1
    15     5     6    1
    16     6     7    1
    17     7    10    1
    18    10    12    1
    19    12    13   ar
    20    13    14   ar
    21    14    15   ar
    22    15    16   ar
    23    16    17    1
    24    16    18   ar
    25     7     8    1
    26     8     9    1
    27    23    24   ar
    28    24    25   ar
    29    30    31    1
    30    31    32    1
    31    32    33    1
    32    33    28    1
    33    25    20   ar
    34     9     4    1
    35    18    12   ar
    36    10    11    1
    37    33    34    1
