@<TRIPOS>MOLECULE
*****
 21 23 0 0 0
SMALL
GASTEIGER

@<TRIPOS>ATOM
      1 C          66.0415   92.6287   12.3424 C.3     1  UNL1        0.0798
      2 C          66.6449   92.3560   13.6883 C.3     1  UNL1        0.0421
      3 C          66.0636   91.2897   14.5687 C.3     1  UNL1        0.0973
      4 N          64.8789   90.4962   14.1032 N.pl3   1  UNL1       -0.2870
      5 C          64.2754   90.7689   12.7572 C.ar    1  UNL1        0.0488
      6 C          63.0907   89.9753   12.2918 C.ar    1  UNL1        0.0146
      7 C          62.4873   90.2481   10.9459 C.ar    1  UNL1        0.0013
      8 C          63.0686   91.3143   10.0654 C.ar    1  UNL1       -0.0002
      9 C          64.2533   92.1079   10.5309 C.ar    1  UNL1       -0.0017
     10 C          64.8567   91.8352   11.8768 C.ar    1  UNL1        0.0057
     11 C          64.2976   89.4299   14.9836 C.ar    1  UNL1        0.0525
     12 C          63.4705   89.8101   16.1758 C.ar    1  UNL1        0.0157
     13 C          62.8892   88.7438   17.0562 C.ar    1  UNL1        0.0135
     14 C          63.1350   87.2973   16.7444 C.ar    1  UNL1        0.0683
     15 CL         62.5537   86.2310   17.6249 Cl      1  UNL1       -0.0814
     16 C          63.9620   86.9170   15.5522 C.ar    1  UNL1        0.0694
     17 CL         64.2078   85.4706   15.2404 Cl      1  UNL1       -0.0813
     18 C          64.5433   87.9833   14.6717 C.ar    1  UNL1        0.0271
     19 C          66.1774   95.1191   11.6149 C.3     1  UNL1        0.0861
     20 N          66.6228   93.6950   11.4619 N.3     1  UNL1       -0.2939
     21 H          67.6314   93.6841   11.6131 H       1  UNL1        0.1235
@<TRIPOS>BOND
     1    19    20    1
     2     1    20    1
     3     1     2    1
     4     2     3    1
     5     3     4    1
     6     4    11    1
     7    11    12   ar
     8    12    13   ar
     9    13    14   ar
    10    14    15    1
    11    14    16   ar
    12    16    17    1
    13    16    18   ar
    14     4     5    1
    15     5     6   ar
    16     6     7   ar
    17     7     8   ar
    18     8     9   ar
    19     9    10   ar
    20    10     1    1
    21    18    11   ar
    22    10     5   ar
    23    20    21    1
@<TRIPOS>MOLECULE
*****
 21 23 0 0 0
SMALL
GASTEIGER

@<TRIPOS>ATOM
      1 C          64.9242   92.4315   11.5312 C.3     1  UNL1        0.0798
      2 C          63.9731   91.3152   11.2164 C.3     1  UNL1        0.0421
      3 C          63.6475   90.2900   12.2618 C.3     1  UNL1        0.0973
      4 N          64.2731   90.3811   13.6221 N.pl3   1  UNL1       -0.2870
      5 C          65.2243   91.4975   13.9369 C.ar    1  UNL1        0.0488
      6 C          65.8498   91.5886   15.2972 C.ar    1  UNL1        0.0146
      7 C          66.8009   92.7049   15.6120 C.ar    1  UNL1        0.0013
      8 C          67.1265   93.7301   14.5665 C.ar    1  UNL1       -0.0002
      9 C          66.5010   93.6390   13.2063 C.ar    1  UNL1       -0.0017
     10 C          65.5498   92.5227   12.8915 C.ar    1  UNL1        0.0057
     11 C          63.9475   89.3560   14.6675 C.ar    1  UNL1        0.0525
     12 C          63.2397   89.7656   15.9249 C.ar    1  UNL1        0.0157
     13 C          62.9141   88.7405   16.9704 C.ar    1  UNL1        0.0135
     14 C          63.2963   87.3056   16.7584 C.ar    1  UNL1        0.0683
     15 CL         62.9707   86.2804   17.8039 Cl      1  UNL1       -0.0814
     16 C          64.0041   86.8958   15.5010 C.ar    1  UNL1        0.0694
     17 CL         64.3863   85.4609   15.2890 Cl      1  UNL1       -0.0813
     18 C          64.3297   87.9210   14.4555 C.ar    1  UNL1        0.0271
     19 C          66.6210   93.5001    9.8792 C.3     1  UNL1        0.0861
     20 N          65.2498   93.4567   10.4857 N.3     1  UNL1       -0.2939
     21 H          64.5929   93.3139    9.7186 H       1  UNL1        0.1235
@<TRIPOS>BOND
     1    19    20    1
     2     1    20    1
     3     1     2    1
     4     2     3    1
     5     3     4    1
     6     4    11    1
     7    11    12   ar
     8    12    13   ar
     9    13    14   ar
    10    14    15    1
    11    14    16   ar
    12    16    17    1
    13    16    18   ar
    14     4     5    1
    15     5     6   ar
    16     6     7   ar
    17     7     8   ar
    18     8     9   ar
    19     9    10   ar
    20    10     1    1
    21    18    11   ar
    22    10     5   ar
    23    20    21    1
@<TRIPOS>MOLECULE
*****
 21 23 0 0 0
SMALL
GASTEIGER

@<TRIPOS>ATOM
      1 C          64.1260   89.9825   14.1564 C.3     1  UNL1        0.0798
      2 C          65.3491   90.7380   14.5843 C.3     1  UNL1        0.0421
      3 C          65.9854   91.7252   13.6513 C.3     1  UNL1        0.0973
      4 N          65.3986   91.9570   12.2905 N.pl3   1  UNL1       -0.2870
      5 C          64.1753   91.2016   11.8626 C.ar    1  UNL1        0.0488
      6 C          63.5885   91.4334   10.5018 C.ar    1  UNL1        0.0146
      7 C          62.3653   90.6779   10.0740 C.ar    1  UNL1        0.0013
      8 C          61.7290   89.6907   11.0069 C.ar    1  UNL1       -0.0002
      9 C          62.3159   89.4589   12.3677 C.ar    1  UNL1       -0.0017
     10 C          63.5390   90.2143   12.7956 C.ar    1  UNL1        0.0057
     11 C          66.0349   92.9443   11.3575 C.ar    1  UNL1        0.0525
     12 C          66.9865   92.4705   10.2993 C.ar    1  UNL1        0.0157
     13 C          67.6229   93.4577    9.3664 C.ar    1  UNL1        0.0135
     14 C          67.3075   94.9188    9.4916 C.ar    1  UNL1        0.0683
     15 CL         67.9439   95.9061    8.5586 Cl      1  UNL1       -0.0814
     16 C          66.3559   95.3927   10.5498 C.ar    1  UNL1        0.0694
     17 CL         66.0405   96.8538   10.6751 Cl      1  UNL1       -0.0813
     18 C          65.7195   94.4055   11.4828 C.ar    1  UNL1        0.0271
     19 C          63.1507   89.4008   16.4932 C.3     1  UNL1        0.0861
     20 N          63.4896   88.9953   15.0894 N.3     1  UNL1       -0.2939
     21 H          62.6188   88.6951   14.6512 H       1  UNL1        0.1235
@<TRIPOS>BOND
     1    19    20    1
     2     1    20    1
     3     1     2    1
     4     2     3    1
     5     3     4    1
     6     4    11    1
     7    11    12   ar
     8    12    13   ar
     9    13    14   ar
    10    14    15    1
    11    14    16   ar
    12    16    17    1
    13    16    18   ar
    14     4     5    1
    15     5     6   ar
    16     6     7   ar
    17     7     8   ar
    18     8     9   ar
    19     9    10   ar
    20    10     1    1
    21    18    11   ar
    22    10     5   ar
    23    20    21    1
@<TRIPOS>MOLECULE
*****
 21 23 0 0 0
SMALL
GASTEIGER

@<TRIPOS>ATOM
      1 C          60.2411   88.6273    8.4512 C.3     1  UNL1        0.0798
      2 C          60.0559   87.2149    7.9814 C.3     1  UNL1        0.0421
      3 C          60.7743   86.0943    8.6729 C.3     1  UNL1        0.0973
      4 N          61.6778   86.3861    9.8342 N.pl3   1  UNL1       -0.2870
      5 C          61.8630   87.7986   10.3040 C.ar    1  UNL1        0.0488
      6 C          62.7665   88.0904   11.4652 C.ar    1  UNL1        0.0146
      7 C          62.9516   89.5029   11.9349 C.ar    1  UNL1        0.0013
      8 C          62.2333   90.6235   11.2434 C.ar    1  UNL1       -0.0002
      9 C          61.3298   90.3317   10.0822 C.ar    1  UNL1       -0.0017
     10 C          61.1446   88.9192    9.6125 C.ar    1  UNL1        0.0057
     11 C          62.3961   85.2655   10.5257 C.ar    1  UNL1        0.0525
     12 C          63.3505   84.3996    9.7580 C.ar    1  UNL1        0.0157
     13 C          64.0689   83.2790   10.4495 C.ar    1  UNL1        0.0135
     14 C          63.8329   83.0242   11.9087 C.ar    1  UNL1        0.0683
     15 CL         64.5512   81.9036   12.6002 Cl      1  UNL1       -0.0814
     16 C          62.8784   83.8901   12.6765 C.ar    1  UNL1        0.0694
     17 CL         62.6424   83.6353   14.1357 Cl      1  UNL1       -0.0813
     18 C          62.1601   85.0107   11.9850 C.ar    1  UNL1        0.0271
     19 C          59.3133   89.7015    6.2751 C.3     1  UNL1        0.0861
     20 N          59.5227   89.7480    7.7597 N.3     1  UNL1       -0.2939
     21 H          58.5981   89.8122    8.1856 H       1  UNL1        0.1235
@<TRIPOS>BOND
     1    19    20    1
     2     1    20    1
     3     1     2    1
     4     2     3    1
     5     3     4    1
     6     4    11    1
     7    11    12   ar
     8    12    13   ar
     9    13    14   ar
    10    14    15    1
    11    14    16   ar
    12    16    17    1
    13    16    18   ar
    14     4     5    1
    15     5     6   ar
    16     6     7   ar
    17     7     8   ar
    18     8     9   ar
    19     9    10   ar
    20    10     1    1
    21    18    11   ar
    22    10     5   ar
    23    20    21    1
@<TRIPOS>MOLECULE
*****
 21 23 0 0 0
SMALL
GASTEIGER

@<TRIPOS>ATOM
      1 C          62.4717   89.3314   11.0718 C.3     1  UNL1        0.0798
      2 C          61.9023   88.3770   10.0644 C.3     1  UNL1        0.0421
      3 C          62.0015   86.8979   10.2930 C.3     1  UNL1        0.0973
      4 N          62.6700   86.3731   11.5289 N.pl3   1  UNL1       -0.2870
      5 C          63.2394   87.3275   12.5364 C.ar    1  UNL1        0.0488
      6 C          63.9079   86.8027   13.7724 C.ar    1  UNL1        0.0146
      7 C          64.4773   87.7571   14.7798 C.ar    1  UNL1        0.0013
      8 C          64.3782   89.2363   14.5512 C.ar    1  UNL1       -0.0002
      9 C          63.7096   89.7611   13.3152 C.ar    1  UNL1       -0.0017
     10 C          63.1403   88.8067   12.3078 C.ar    1  UNL1        0.0057
     11 C          62.7692   84.8939   11.7575 C.ar    1  UNL1        0.0525
     12 C          63.2761   83.9987   10.6660 C.ar    1  UNL1        0.0157
     13 C          63.3753   82.5195   10.8945 C.ar    1  UNL1        0.0135
     14 C          62.9675   81.9356   12.2146 C.ar    1  UNL1        0.0683
     15 CL         63.0666   80.4564   12.4432 Cl      1  UNL1       -0.0814
     16 C          62.4605   82.8309   13.3062 C.ar    1  UNL1        0.0694
     17 CL         62.0527   82.2469   14.6263 Cl      1  UNL1       -0.0813
     18 C          62.3613   84.3100   13.0777 C.ar    1  UNL1        0.0271
     19 C          63.4951   91.5422   10.1691 C.3     1  UNL1        0.0861
     20 N          62.3725   90.8106   10.8432 N.3     1  UNL1       -0.2939
     21 H          61.5382   90.9658   10.2774 H       1  UNL1        0.1235
@<TRIPOS>BOND
     1    19    20    1
     2     1    20    1
     3     1     2    1
     4     2     3    1
     5     3     4    1
     6     4    11    1
     7    11    12   ar
     8    12    13   ar
     9    13    14   ar
    10    14    15    1
    11    14    16   ar
    12    16    17    1
    13    16    18   ar
    14     4     5    1
    15     5     6   ar
    16     6     7   ar
    17     7     8   ar
    18     8     9   ar
    19     9    10   ar
    20    10     1    1
    21    18    11   ar
    22    10     5   ar
    23    20    21    1
@<TRIPOS>MOLECULE
*****
 21 23 0 0 0
SMALL
GASTEIGER

@<TRIPOS>ATOM
      1 C          64.0810   89.8679   13.6871 C.3     1  UNL1        0.0798
      2 C          63.4828   90.6386   12.5478 C.3     1  UNL1        0.0421
      3 C          62.7670   89.9145   11.4463 C.3     1  UNL1        0.0973
      4 N          62.6494   88.4196   11.4842 N.pl3   1  UNL1       -0.2870
      5 C          63.2476   87.6488   12.6235 C.ar    1  UNL1        0.0488
      6 C          63.1300   86.1539   12.6614 C.ar    1  UNL1        0.0146
      7 C          63.7282   85.3832   13.8007 C.ar    1  UNL1        0.0013
      8 C          64.4440   86.1073   14.9022 C.ar    1  UNL1       -0.0002
      9 C          64.5616   87.6022   14.8643 C.ar    1  UNL1       -0.0017
     10 C          63.9634   88.3729   13.7250 C.ar    1  UNL1        0.0057
     11 C          61.9336   87.6954   10.3827 C.ar    1  UNL1        0.0525
     12 C          60.4759   87.9522   10.1398 C.ar    1  UNL1        0.0157
     13 C          59.7601   87.2280    9.0384 C.ar    1  UNL1        0.0135
     14 C          60.5020   86.2471    8.1797 C.ar    1  UNL1        0.0683
     15 CL         59.7862   85.5230    7.0783 Cl      1  UNL1       -0.0814
     16 C          61.9598   85.9904    8.4226 C.ar    1  UNL1        0.0694
     17 CL         62.7018   85.0095    7.5639 Cl      1  UNL1       -0.0813
     18 C          62.6756   86.7145    9.5240 C.ar    1  UNL1        0.0271
     19 C          65.9649   91.4771   14.4690 C.3     1  UNL1        0.0861
     20 N          64.7968   90.5920   14.7886 N.3     1  UNL1       -0.2939
     21 H          64.1036   91.1766   15.2557 H       1  UNL1        0.1235
@<TRIPOS>BOND
     1    19    20    1
     2     1    20    1
     3     1     2    1
     4     2     3    1
     5     3     4    1
     6     4    11    1
     7    11    12   ar
     8    12    13   ar
     9    13    14   ar
    10    14    15    1
    11    14    16   ar
    12    16    17    1
    13    16    18   ar
    14     4     5    1
    15     5     6   ar
    16     6     7   ar
    17     7     8   ar
    18     8     9   ar
    19     9    10   ar
    20    10     1    1
    21    18    11   ar
    22    10     5   ar
    23    20    21    1
@<TRIPOS>MOLECULE
*****
 21 23 0 0 0
SMALL
GASTEIGER

@<TRIPOS>ATOM
      1 C          65.3968   92.7289   12.0174 C.3     1  UNL1        0.0798
      2 C          64.9513   92.8068   10.5872 C.3     1  UNL1        0.0421
      3 C          63.9284   91.8410   10.0666 C.3     1  UNL1        0.0973
      4 N          63.3512   90.7973   10.9762 N.pl3   1  UNL1       -0.2870
      5 C          63.7967   90.7193   12.4064 C.ar    1  UNL1        0.0488
      6 C          63.2195   89.6755   13.3159 C.ar    1  UNL1        0.0146
      7 C          63.6650   89.5976   14.7461 C.ar    1  UNL1        0.0013
      8 C          64.6878   90.5634   15.2667 C.ar    1  UNL1       -0.0002
      9 C          65.2651   91.6072   14.3571 C.ar    1  UNL1       -0.0017
     10 C          64.8195   91.6851   12.9270 C.ar    1  UNL1        0.0057
     11 C          62.3283   89.8314   10.4556 C.ar    1  UNL1        0.0525
     12 C          60.8834   90.2295   10.3950 C.ar    1  UNL1        0.0157
     13 C          59.8606   89.2637    9.8744 C.ar    1  UNL1        0.0135
     14 C          60.2827   87.8998    9.4143 C.ar    1  UNL1        0.0683
     15 CL         59.2599   86.9340    8.8937 Cl      1  UNL1       -0.0814
     16 C          61.7277   87.5017    9.4749 C.ar    1  UNL1        0.0694
     17 CL         62.1498   86.1379    9.0148 Cl      1  UNL1       -0.0813
     18 C          62.7505   88.4675    9.9955 C.ar    1  UNL1        0.0271
     19 C          66.4222   95.1157   12.0578 C.3     1  UNL1        0.0861
     20 N          66.4196   93.6947   12.5380 N.3     1  UNL1       -0.2939
     21 H          66.3058   93.7265   13.5511 H       1  UNL1        0.1235
@<TRIPOS>BOND
     1    19    20    1
     2     1    20    1
     3     1     2    1
     4     2     3    1
     5     3     4    1
     6     4    11    1
     7    11    12   ar
     8    12    13   ar
     9    13    14   ar
    10    14    15    1
    11    14    16   ar
    12    16    17    1
    13    16    18   ar
    14     4     5    1
    15     5     6   ar
    16     6     7   ar
    17     7     8   ar
    18     8     9   ar
    19     9    10   ar
    20    10     1    1
    21    18    11   ar
    22    10     5   ar
    23    20    21    1
@<TRIPOS>MOLECULE
*****
 21 23 0 0 0
SMALL
GASTEIGER

@<TRIPOS>ATOM
      1 C          61.2027   88.0393    9.7797 C.3     1  UNL1        0.0798
      2 C          61.2548   89.5381    9.7547 C.3     1  UNL1        0.0421
      3 C          62.0511   90.2782   10.7882 C.3     1  UNL1        0.0973
      4 N          62.7954   89.5195   11.8467 N.pl3   1  UNL1       -0.2870
      5 C          62.7433   88.0206   11.8717 C.ar    1  UNL1        0.0488
      6 C          63.4875   87.2618   12.9301 C.ar    1  UNL1        0.0146
      7 C          63.4355   85.7630   12.9551 C.ar    1  UNL1        0.0013
      8 C          62.6391   85.0229   11.9216 C.ar    1  UNL1       -0.0002
      9 C          61.8949   85.7816   10.8631 C.ar    1  UNL1       -0.0017
     10 C          61.9470   87.2805   10.8382 C.ar    1  UNL1        0.0057
     11 C          63.5917   90.2596   12.8802 C.ar    1  UNL1        0.0525
     12 C          63.3521   90.0014   14.3382 C.ar    1  UNL1        0.0157
     13 C          64.1484   90.7415   15.3717 C.ar    1  UNL1        0.0135
     14 C          65.1843   91.7398   14.9472 C.ar    1  UNL1        0.0683
     15 CL         65.9806   92.4799   15.9807 Cl      1  UNL1       -0.0814
     16 C          65.4240   91.9981   13.4891 C.ar    1  UNL1        0.0694
     17 CL         66.4599   92.9964   13.0645 Cl      1  UNL1       -0.0813
     18 C          64.6276   91.2580   12.4556 C.ar    1  UNL1        0.0271
     19 C          59.4963   88.0508    7.8206 C.3     1  UNL1        0.0861
     20 N          60.4064   87.2992    8.7462 N.3     1  UNL1       -0.2939
     21 H          61.0759   86.8005    8.1601 H       1  UNL1        0.1235
@<TRIPOS>BOND
     1    19    20    1
     2     1    20    1
     3     1     2    1
     4     2     3    1
     5     3     4    1
     6     4    11    1
     7    11    12   ar
     8    12    13   ar
     9    13    14   ar
    10    14    15    1
    11    14    16   ar
    12    16    17    1
    13    16    18   ar
    14     4     5    1
    15     5     6   ar
    16     6     7   ar
    17     7     8   ar
    18     8     9   ar
    19     9    10   ar
    20    10     1    1
    21    18    11   ar
    22    10     5   ar
    23    20    21    1
@<TRIPOS>MOLECULE
*****
 21 23 0 0 0
SMALL
GASTEIGER

@<TRIPOS>ATOM
      1 C          63.9388   83.3725   13.4147 C.3     1  UNL1        0.0798
      2 C          64.4782   83.6748   14.7813 C.3     1  UNL1        0.0421
      3 C          64.4627   85.0825   15.2992 C.3     1  UNL1        0.0973
      4 N          63.9078   86.1878   14.4505 N.pl3   1  UNL1       -0.2870
      5 C          63.3684   85.8855   13.0839 C.ar    1  UNL1        0.0488
      6 C          62.8136   86.9908   12.2352 C.ar    1  UNL1        0.0146
      7 C          62.2742   86.6885   10.8686 C.ar    1  UNL1        0.0013
      8 C          62.2897   85.2808   10.3507 C.ar    1  UNL1       -0.0002
      9 C          62.8446   84.1755   11.1993 C.ar    1  UNL1       -0.0017
     10 C          63.3839   84.4778   12.5660 C.ar    1  UNL1        0.0057
     11 C          63.8923   87.5955   14.9685 C.ar    1  UNL1        0.0525
     12 C          63.2518   87.9015   16.2898 C.ar    1  UNL1        0.0157
     13 C          63.2363   89.3091   16.8078 C.ar    1  UNL1        0.0135
     14 C          63.8613   90.4108   16.0043 C.ar    1  UNL1        0.0683
     15 CL         63.8458   91.8185   16.5222 Cl      1  UNL1       -0.0814
     16 C          64.5018   90.1049   14.6828 C.ar    1  UNL1        0.0694
     17 CL         65.1268   91.2066   13.8793 Cl      1  UNL1       -0.0813
     18 C          64.5173   88.6972   14.1649 C.ar    1  UNL1        0.0271
     19 C          63.1455   80.9042   13.5830 C.3     1  UNL1        0.0861
     20 N          63.9543   81.9648   12.8968 N.3     1  UNL1       -0.2939
     21 H          63.6304   82.0030   11.9304 H       1  UNL1        0.1235
@<TRIPOS>BOND
     1    19    20    1
     2     1    20    1
     3     1     2    1
     4     2     3    1
     5     3     4    1
     6     4    11    1
     7    11    12   ar
     8    12    13   ar
     9    13    14   ar
    10    14    15    1
    11    14    16   ar
    12    16    17    1
    13    16    18   ar
    14     4     5    1
    15     5     6   ar
    16     6     7   ar
    17     7     8   ar
    18     8     9   ar
    19     9    10   ar
    20    10     1    1
    21    18    11   ar
    22    10     5   ar
    23    20    21    1
