@<TRIPOS>MOLECULE
*****
 38 42 0 0 0
SMALL
GASTEIGER

@<TRIPOS>ATOM
      1 C          62.5823   85.2872   11.7525 C.3     1  UNL1        0.1014
      2 C          59.1885   86.7689    7.9885 C.3     1  UNL1        0.0381
      3 C          60.4084   86.2366    8.6804 C.ar    1  UNL1        0.0074
      4 C          61.6387   85.7006    8.0103 C.ar    1  UNL1        0.0024
      5 C          62.6028   85.2796    9.0796 C.ar    1  UNL1        0.0039
      6 C          61.9684   85.5556   10.4105 C.ar    1  UNL1        0.0248
      7 S          60.6121   86.1470   10.1638 S.2     1  UNL1       -0.0940
      8 N          63.1589   86.4173   12.5530 N.am    1  UNL1       -0.3017
      9 C          63.0735   87.8227   12.0358 C.2     1  UNL1        0.2222
     10 O          62.4116   88.0981   10.7182 O.2     1  UNL1       -0.2751
     11 H          63.5933   86.2365   13.4177 H       1  UNL1        0.1497
     12 C          63.6500   88.9527   12.8362 C.3     1  UNL1        0.0769
     13 C          63.7696   90.3184   12.2274 C.3     1  UNL1        0.0147
     14 C          64.3462   91.4485   13.0279 C.3     1  UNL1        0.0671
     15 C          64.8031   91.2127   14.4370 C.3     1  UNL1        0.2640
     16 F          65.3700   91.4841   15.7990 F       1  UNL1       -0.2043
     17 F          65.1196   92.6727   14.3013 F       1  UNL1       -0.2043
     18 C          64.6835   89.8470   15.0457 C.3     1  UNL1        0.0671
     19 C          64.1070   88.7170   14.2453 C.3     1  UNL1        0.0147
     20 C          62.6196   83.8889   12.2941 C.3     1  UNL1        0.0419
     21 C          63.4844   83.5654   13.4763 C.3     1  UNL1        0.0741
     22 N          63.5022   84.4799   14.6652 N.3     1  UNL1       -0.2750
     23 C          64.6978   85.2155   15.1939 C.3     1  UNL1        0.0594
     24 C          64.2621   86.0096   16.3895 C.3     1  UNL1        0.0174
     25 C          62.7972   85.7647   16.5998 C.3     1  UNL1        0.0174
     26 C          62.3276   84.8193   15.5341 C.3     1  UNL1        0.0594
     27 C          62.1428   83.8770   14.3693 C.3     1  UNL1        0.0386
     28 C          63.4025   83.6318   13.5927 C.3     1  UNL1        0.0904
     29 C          64.6800   84.3010   14.0050 C.3     1  UNL1        0.0386
     30 N          63.3846   82.7173   12.4038 N.ar    1  UNL1       -0.3039
     31 C          64.1106   82.9388   11.1100 C.ar    1  UNL1        0.1433
     32 C          64.9820   84.1137   10.7780 C.3     1  UNL1        0.0738
     33 N          63.8123   81.7792   10.2066 N.ar    1  UNL1       -0.1337
     34 N          62.9019   80.8409   10.9420 N.ar    1  UNL1       -0.1337
     35 C          62.6376   81.4207   12.2999 C.ar    1  UNL1        0.1425
     36 C          61.7772   80.8109   13.3668 C.3     1  UNL1        0.0588
     37 C          60.4048   81.1073   13.8944 C.3     1  UNL1        0.0080
     38 C          62.2799   79.6393   14.1571 C.3     1  UNL1        0.0080
@<TRIPOS>BOND
     1     2     3    1
     2     3     4   ar
     3     4     5   ar
     4     5     6   ar
     5     6     1    1
     6     1    20    1
     7    20    21    1
     8    21    22    1
     9    22    23    1
    10    23    24    1
    11    24    25    1
    12    26    25    1
    13    26    27    1
    14    27    28    1
    15    28    30    1
    16    30    31   ar
    17    31    32    1
    18    31    33   ar
    19    33    34   ar
    20    34    35   ar
    21    35    36    1
    22    36    37    1
    23    36    38    1
    24    28    29    1
    25     1     8    1
    26     8     9   am
    27     9    10    2
    28     9    12    1
    29    12    13    1
    30    13    14    1
    31    14    15    1
    32    15    16    1
    33    15    17    1
    34    15    18    1
    35    18    19    1
    36     6     7   ar
    37     7     3   ar
    38    26    22    1
    39    35    30   ar
    40    19    12    1
    41    29    23    1
    42     8    11    1
@<TRIPOS>MOLECULE
*****
 38 42 0 0 0
SMALL
GASTEIGER

@<TRIPOS>ATOM
      1 C          63.5878   87.9213   12.6029 C.3     1  UNL1        0.1014
      2 C          63.7915   83.4566   15.4147 C.3     1  UNL1        0.0381
      3 C          63.8778   84.9028   15.0256 C.ar    1  UNL1        0.0074
      4 C          64.2949   86.0329   15.9194 C.ar    1  UNL1        0.0024
      5 C          64.2371   87.3012   15.1207 C.ar    1  UNL1        0.0039
      6 C          63.7842   86.9549   13.7332 C.ar    1  UNL1        0.0248
      7 S          63.5622   85.4726   13.6745 S.2     1  UNL1       -0.0940
      8 N          63.3551   87.4107   11.2117 N.am    1  UNL1       -0.3017
      9 C          62.1860   86.5150   10.9273 C.2     1  UNL1        0.2222
     10 O          61.2496   86.1298   12.0340 O.2     1  UNL1       -0.2751
     11 H          63.9696   87.6636   10.4853 H       1  UNL1        0.1497
     12 C          61.9532   86.0046    9.5362 C.3     1  UNL1        0.0769
     13 C          63.0841   85.3948    8.7621 C.3     1  UNL1        0.0147
     14 C          62.8514   84.8842    7.3709 C.3     1  UNL1        0.0671
     15 C          61.4878   84.9836    6.7540 C.3     1  UNL1        0.2640
     16 F          60.3838   84.8557    5.7465 F       1  UNL1       -0.2043
     17 F          62.2353   84.3294    5.6300 F       1  UNL1       -0.2043
     18 C          60.3569   85.5934    7.5280 C.3     1  UNL1        0.0671
     19 C          60.5896   86.1039    8.9192 C.3     1  UNL1        0.0147
     20 C          63.6242   89.3979   12.8636 C.3     1  UNL1        0.0419
     21 C          62.4333   90.2476   12.5320 C.3     1  UNL1        0.0741
     22 N          61.5217   89.8551   11.4074 N.3     1  UNL1       -0.2750
     23 C          60.1212   89.3365   11.5478 C.3     1  UNL1        0.0594
     24 C          59.5844   89.0731   10.1721 C.3     1  UNL1        0.0174
     25 C          60.6531   89.4289    9.1816 C.3     1  UNL1        0.0174
     26 C          61.8504   89.9122    9.9450 C.3     1  UNL1        0.0594
     27 C          62.8839   90.3453   10.9566 C.3     1  UNL1        0.0386
     28 C          62.4142   90.2334   12.3768 C.3     1  UNL1        0.0904
     29 C          61.0328   89.7290   12.6724 C.3     1  UNL1        0.0386
     30 N          63.3260   90.6260   13.5015 N.ar    1  UNL1       -0.3039
     31 C          63.1373   90.2842   14.9498 C.ar    1  UNL1        0.1433
     32 C          62.0038   89.4898   15.5278 C.3     1  UNL1        0.0738
     33 N          64.2811   90.8762   15.7185 N.ar    1  UNL1       -0.1337
     34 N          65.1767   91.5839   14.7455 N.ar    1  UNL1       -0.1337
     35 C          64.5864   91.4293   13.3752 C.ar    1  UNL1        0.1425
     36 C          65.1565   91.9811   12.1021 C.3     1  UNL1        0.0588
     37 C          64.5637   92.3916   10.7869 C.3     1  UNL1        0.0080
     38 C          66.6320   92.2241   11.9845 C.3     1  UNL1        0.0080
@<TRIPOS>BOND
     1     2     3    1
     2     3     4   ar
     3     4     5   ar
     4     5     6   ar
     5     6     1    1
     6     1    20    1
     7    20    21    1
     8    21    22    1
     9    22    23    1
    10    23    24    1
    11    24    25    1
    12    26    25    1
    13    26    27    1
    14    27    28    1
    15    28    30    1
    16    30    31   ar
    17    31    32    1
    18    31    33   ar
    19    33    34   ar
    20    34    35   ar
    21    35    36    1
    22    36    37    1
    23    36    38    1
    24    28    29    1
    25     1     8    1
    26     8     9   am
    27     9    10    2
    28     9    12    1
    29    12    13    1
    30    13    14    1
    31    14    15    1
    32    15    16    1
    33    15    17    1
    34    15    18    1
    35    18    19    1
    36     6     7   ar
    37     7     3   ar
    38    26    22    1
    39    35    30   ar
    40    19    12    1
    41    29    23    1
    42     8    11    1
@<TRIPOS>MOLECULE
*****
 38 42 0 0 0
SMALL
GASTEIGER

@<TRIPOS>ATOM
      1 C          63.1539   88.0917   12.5052 C.3     1  UNL1        0.1014
      2 C          64.3092   83.5798   14.9930 C.3     1  UNL1        0.0381
      3 C          63.7571   84.5620   14.0027 C.ar    1  UNL1        0.0074
      4 C          62.9171   84.2292   12.8054 C.ar    1  UNL1        0.0024
      5 C          62.5889   85.5109   12.0987 C.ar    1  UNL1        0.0039
      6 C          63.2260   86.6359   12.8592 C.ar    1  UNL1        0.0248
      7 S          63.9481   86.0494   14.0360 S.2     1  UNL1       -0.0940
      8 N          64.2173   89.0340   12.9863 N.am    1  UNL1       -0.3017
      9 C          64.0470   89.7539   14.2911 C.2     1  UNL1        0.2222
     10 O          62.8134   89.5316   15.1150 O.2     1  UNL1       -0.2751
     11 H          65.0270   89.1800   12.4456 H       1  UNL1        0.1497
     12 C          65.1104   90.6962   14.7722 C.3     1  UNL1        0.0769
     13 C          66.4626   90.6954   14.1230 C.3     1  UNL1        0.0147
     14 C          67.5261   91.6377   14.6040 C.3     1  UNL1        0.0671
     15 C          67.2371   92.5807   15.7342 C.3     1  UNL1        0.2640
     16 F          67.4427   93.6528   16.7630 F       1  UNL1       -0.2043
     17 F          68.6608   92.9523   15.4423 F       1  UNL1       -0.2043
     18 C          65.8849   92.5814   16.3834 C.3     1  UNL1        0.0671
     19 C          64.8215   91.6392   15.9024 C.3     1  UNL1        0.0147
     20 C          62.0186   88.6052   11.6702 C.3     1  UNL1        0.0419
     21 C          62.2694   89.6528   10.6263 C.3     1  UNL1        0.0741
     22 N          63.2243   90.7756   10.9047 N.3     1  UNL1       -0.2750
     23 C          64.3744   91.1907   10.0359 C.3     1  UNL1        0.0594
     24 C          65.0577   92.3520   10.6950 C.3     1  UNL1        0.0174
     25 C          64.3299   92.6546   11.9711 C.3     1  UNL1        0.0174
     26 C          63.1968   91.6804   12.1008 C.3     1  UNL1        0.0594
     27 C          62.1589   90.5921   11.9679 C.3     1  UNL1        0.0386
     28 C          62.3117   89.7687   10.7235 C.3     1  UNL1        0.0904
     29 C          63.4195   90.0679    9.7575 C.3     1  UNL1        0.0386
     30 N          61.3567   88.6458   10.4451 N.ar    1  UNL1       -0.3039
     31 C          61.6548   87.4129    9.6445 C.ar    1  UNL1        0.1433
     32 C          62.9601   87.0862    8.9817 C.3     1  UNL1        0.0738
     33 N          60.4183   86.5640    9.6232 N.ar    1  UNL1       -0.1337
     34 N          59.3561   87.2723   10.4105 N.ar    1  UNL1       -0.1337
     35 C          59.9360   88.5590   10.9185 C.ar    1  UNL1        0.1425
     36 C          59.2209   89.5796   11.7534 C.3     1  UNL1        0.0588
     37 C          58.9577   91.0487   11.6041 C.3     1  UNL1        0.0080
     38 C          58.5821   89.1746   13.0488 C.3     1  UNL1        0.0080
@<TRIPOS>BOND
     1     2     3    1
     2     3     4   ar
     3     4     5   ar
     4     5     6   ar
     5     6     1    1
     6     1    20    1
     7    20    21    1
     8    21    22    1
     9    22    23    1
    10    23    24    1
    11    24    25    1
    12    26    25    1
    13    26    27    1
    14    27    28    1
    15    28    30    1
    16    30    31   ar
    17    31    32    1
    18    31    33   ar
    19    33    34   ar
    20    34    35   ar
    21    35    36    1
    22    36    37    1
    23    36    38    1
    24    28    29    1
    25     1     8    1
    26     8     9   am
    27     9    10    2
    28     9    12    1
    29    12    13    1
    30    13    14    1
    31    14    15    1
    32    15    16    1
    33    15    17    1
    34    15    18    1
    35    18    19    1
    36     6     7   ar
    37     7     3   ar
    38    26    22    1
    39    35    30   ar
    40    19    12    1
    41    29    23    1
    42     8    11    1
