@<TRIPOS>MOLECULE
*****
 18 20 0 0 0
SMALL
GASTEIGER

@<TRIPOS>ATOM
      1 N          65.0099   91.3521   14.3314 N.ar    1  UNL1       -0.3036
      2 C          66.3863   91.5419   14.8967 C.ar    1  UNL1        0.1788
      3 N          67.2545   92.1202   13.8187 N.ar    1  UNL1       -0.2238
      4 C          66.4146   92.2877   12.5872 C.ar    1  UNL1        0.1017
      5 C          65.0275   91.8130   12.9040 C.ar    1  UNL1        0.0967
      6 C          66.8802   92.8340   11.2702 C.ar    1  UNL1        0.0383
      7 C          67.9155   92.0947   10.4754 C.ar    1  UNL1        0.0047
      8 C          68.3811   92.6410    9.1582 C.ar    1  UNL1        0.0207
      9 C          67.8114   93.9266    8.6359 C.ar    1  UNL1        0.0989
     10 N          66.7761   94.6659    9.4307 N.ar    1  UNL1       -0.2423
     11 C          66.3106   94.1195   10.7478 C.ar    1  UNL1        0.1004
     12 C          63.8242   90.7986   15.0647 C.3     1  UNL1        0.1343
     13 C          63.6885   86.4344   16.1535 C.ar    1  UNL1       -0.0000
     14 C          63.0577   87.4526   17.0564 C.ar    1  UNL1       -0.0003
     15 C          63.1030   88.9074   16.6934 C.ar    1  UNL1       -0.0024
     16 C          63.7790   89.3439   15.4276 C.ar    1  UNL1        0.0004
     17 C          64.4097   88.3256   14.5247 C.ar    1  UNL1       -0.0024
     18 C          64.3645   86.8709   14.8876 C.ar    1  UNL1       -0.0003
@<TRIPOS>BOND
     1    13    14   ar
     2    14    15   ar
     3    15    16   ar
     4    16    12    1
     5    12     1    1
     6     1     2   ar
     7     2     3   ar
     8     3     4   ar
     9     4     6    1
    10     6     7   ar
    11     7     8   ar
    12     8     9   ar
    13     9    10   ar
    14    10    11   ar
    15     4     5   ar
    16    16    17   ar
    17    17    18   ar
    18    18    13   ar
    19     5     1   ar
    20    11     6   ar
@<TRIPOS>MOLECULE
*****
 18 20 0 0 0
SMALL
GASTEIGER

@<TRIPOS>ATOM
      1 N          61.5005   88.2629   10.9736 N.ar    1  UNL1       -0.3036
      2 C          60.8162   89.3968   10.2693 C.ar    1  UNL1        0.1788
      3 N          61.6229   90.6402   10.5000 N.ar    1  UNL1       -0.2238
      4 C          62.8059   90.2748   11.3468 C.ar    1  UNL1        0.1017
      5 C          62.7303   88.8055   11.6395 C.ar    1  UNL1        0.0967
      6 C          63.8765   91.2136   11.8182 C.ar    1  UNL1        0.0383
      7 C          64.6241   92.0565   10.8279 C.ar    1  UNL1        0.0047
      8 C          65.6947   92.9954   11.2993 C.ar    1  UNL1        0.0207
      9 C          66.0177   93.0915   12.7609 C.ar    1  UNL1        0.0989
     10 N          65.2701   92.2487   13.7513 N.ar    1  UNL1       -0.2423
     11 C          64.1995   91.3098   13.2798 C.ar    1  UNL1        0.1004
     12 C          61.0367   86.8368   11.0062 C.3     1  UNL1        0.1343
     13 C          63.8724   83.5225    9.8997 C.ar    1  UNL1       -0.0000
     14 C          63.3622   83.6349   11.3057 C.ar    1  UNL1       -0.0003
     15 C          62.4170   84.7397   11.6746 C.ar    1  UNL1       -0.0024
     16 C          61.9819   85.7320   10.6373 C.ar    1  UNL1        0.0004
     17 C          62.4920   85.6196    9.2313 C.ar    1  UNL1       -0.0024
     18 C          63.4373   84.5149    8.8624 C.ar    1  UNL1       -0.0003
@<TRIPOS>BOND
     1    13    14   ar
     2    14    15   ar
     3    15    16   ar
     4    16    12    1
     5    12     1    1
     6     1     2   ar
     7     2     3   ar
     8     3     4   ar
     9     4     6    1
    10     6     7   ar
    11     7     8   ar
    12     8     9   ar
    13     9    10   ar
    14    10    11   ar
    15     4     5   ar
    16    16    17   ar
    17    17    18   ar
    18    18    13   ar
    19     5     1   ar
    20    11     6   ar
@<TRIPOS>MOLECULE
*****
 18 20 0 0 0
SMALL
GASTEIGER

@<TRIPOS>ATOM
      1 N          62.1405   88.9646   11.1237 N.ar    1  UNL1       -0.3036
      2 C          62.1049   90.1096   10.1553 C.ar    1  UNL1        0.1788
      3 N          63.0098   91.1862   10.6769 N.ar    1  UNL1       -0.2238
      4 C          63.6047   90.7066   11.9677 C.ar    1  UNL1        0.1017
      5 C          63.0675   89.3336   12.2438 C.ar    1  UNL1        0.0967
      6 C          64.5678   91.4665   12.8308 C.ar    1  UNL1        0.0383
      7 C          64.7905   91.0482   14.2539 C.ar    1  UNL1        0.0047
      8 C          65.7536   91.8082   15.1171 C.ar    1  UNL1        0.0207
      9 C          66.4939   92.9864   14.5570 C.ar    1  UNL1        0.0989
     10 N          66.2712   93.4047   13.1338 N.ar    1  UNL1       -0.2423
     11 C          65.3081   92.6447   12.2707 C.ar    1  UNL1        0.1004
     12 C          61.3824   87.6768   10.9946 C.3     1  UNL1        0.1343
     13 C          63.4865   83.9590    9.5802 C.ar    1  UNL1       -0.0000
     14 C          63.1319   85.0386    8.6011 C.ar    1  UNL1       -0.0003
     15 C          62.4305   86.2778    9.0726 C.ar    1  UNL1       -0.0024
     16 C          62.0837   86.4375   10.5232 C.ar    1  UNL1        0.0004
     17 C          62.4384   85.3579   11.5023 C.ar    1  UNL1       -0.0024
     18 C          63.1398   84.1187   11.0308 C.ar    1  UNL1       -0.0003
@<TRIPOS>BOND
     1    13    14   ar
     2    14    15   ar
     3    15    16   ar
     4    16    12    1
     5    12     1    1
     6     1     2   ar
     7     2     3   ar
     8     3     4   ar
     9     4     6    1
    10     6     7   ar
    11     7     8   ar
    12     8     9   ar
    13     9    10   ar
    14    10    11   ar
    15     4     5   ar
    16    16    17   ar
    17    17    18   ar
    18    18    13   ar
    19     5     1   ar
    20    11     6   ar
@<TRIPOS>MOLECULE
*****
 18 20 0 0 0
SMALL
GASTEIGER

@<TRIPOS>ATOM
      1 N          63.6736   89.7264   12.6960 N.ar    1  UNL1       -0.3036
      2 C          63.6219   90.9131   11.7799 C.ar    1  UNL1        0.1788
      3 N          62.8338   90.5259   10.5637 N.ar    1  UNL1       -0.2238
      4 C          62.3985   89.0998   10.7281 C.ar    1  UNL1        0.1017
      5 C          62.9175   88.6058   12.0459 C.ar    1  UNL1        0.0967
      6 C          61.5868   88.3071    9.7471 C.ar    1  UNL1        0.0383
      7 C          62.0037   86.9133    9.3817 C.ar    1  UNL1        0.0047
      8 C          61.1919   86.1205    8.4006 C.ar    1  UNL1        0.0207
      9 C          59.9632   86.7216    7.7849 C.ar    1  UNL1        0.0989
     10 N          59.5463   88.1154    8.1502 N.ar    1  UNL1       -0.2423
     11 C          60.3581   88.9081    9.1314 C.ar    1  UNL1        0.1004
     12 C          64.3607   89.6703   14.0282 C.3     1  UNL1        0.1343
     13 C          63.2865   86.4479   16.9798 C.ar    1  UNL1       -0.0000
     14 C          64.0114   86.0950   15.7149 C.ar    1  UNL1       -0.0003
     15 C          64.3695   87.1691   14.7311 C.ar    1  UNL1       -0.0024
     16 C          64.0026   88.5961   15.0120 C.ar    1  UNL1        0.0004
     17 C          63.2778   88.9490   16.2769 C.ar    1  UNL1       -0.0024
     18 C          62.9197   87.8749   17.2608 C.ar    1  UNL1       -0.0003
@<TRIPOS>BOND
     1    13    14   ar
     2    14    15   ar
     3    15    16   ar
     4    16    12    1
     5    12     1    1
     6     1     2   ar
     7     2     3   ar
     8     3     4   ar
     9     4     6    1
    10     6     7   ar
    11     7     8   ar
    12     8     9   ar
    13     9    10   ar
    14    10    11   ar
    15     4     5   ar
    16    16    17   ar
    17    17    18   ar
    18    18    13   ar
    19     5     1   ar
    20    11     6   ar
@<TRIPOS>MOLECULE
*****
 18 20 0 0 0
SMALL
GASTEIGER

@<TRIPOS>ATOM
      1 N          61.3882   88.3738   10.6354 N.ar    1  UNL1       -0.3036
      2 C          60.4625   87.5924    9.7508 C.ar    1  UNL1        0.1788
      3 N          60.8656   86.1490    9.8180 N.ar    1  UNL1       -0.2238
      4 C          62.0405   86.0385   10.7441 C.ar    1  UNL1        0.1017
      5 C          62.3635   87.4134   11.2493 C.ar    1  UNL1        0.0967
      6 C          62.7650   84.7749   11.1021 C.ar    1  UNL1        0.0383
      7 C          63.4960   84.0038   10.0434 C.ar    1  UNL1        0.0047
      8 C          64.2206   82.7401   10.4014 C.ar    1  UNL1        0.0207
      9 C          64.2142   82.2476   11.8183 C.ar    1  UNL1        0.0989
     10 N          63.4832   83.0188   12.8771 N.ar    1  UNL1       -0.2423
     11 C          62.7586   84.2824   12.5190 C.ar    1  UNL1        0.1004
     12 C          61.3462   89.8554   10.8657 C.3     1  UNL1        0.1343
     13 C          65.0803   92.0495   12.0871 C.ar    1  UNL1       -0.0000
     14 C          64.5851   92.1408   10.6742 C.ar    1  UNL1       -0.0003
     15 C          63.3403   91.4094   10.2671 C.ar    1  UNL1       -0.0024
     16 C          62.5909   90.5868   11.2728 C.ar    1  UNL1        0.0004
     17 C          63.0862   90.4956   12.6857 C.ar    1  UNL1       -0.0024
     18 C          64.3309   91.2270   13.0929 C.ar    1  UNL1       -0.0003
@<TRIPOS>BOND
     1    13    14   ar
     2    14    15   ar
     3    15    16   ar
     4    16    12    1
     5    12     1    1
     6     1     2   ar
     7     2     3   ar
     8     3     4   ar
     9     4     6    1
    10     6     7   ar
    11     7     8   ar
    12     8     9   ar
    13     9    10   ar
    14    10    11   ar
    15     4     5   ar
    16    16    17   ar
    17    17    18   ar
    18    18    13   ar
    19     5     1   ar
    20    11     6   ar
@<TRIPOS>MOLECULE
*****
 18 20 0 0 0
SMALL
GASTEIGER

@<TRIPOS>ATOM
      1 N          62.0138   86.8523   10.6343 N.ar    1  UNL1       -0.3036
      2 C          62.5462   86.1287    9.4331 C.ar    1  UNL1        0.1788
      3 N          62.9047   84.7340    9.8533 N.ar    1  UNL1       -0.2238
      4 C          62.5938   84.5957   11.3142 C.ar    1  UNL1        0.1017
      5 C          62.0432   85.9048   11.7969 C.ar    1  UNL1        0.0967
      6 C          62.7977   83.3645   12.1463 C.ar    1  UNL1        0.0383
      7 C          62.7542   82.0096   11.5042 C.ar    1  UNL1        0.0047
      8 C          62.9581   80.7784   12.3363 C.ar    1  UNL1        0.0207
      9 C          63.2056   80.9020   13.8106 C.ar    1  UNL1        0.0989
     10 N          63.2491   82.2570   14.4528 N.ar    1  UNL1       -0.2423
     11 C          63.0452   83.4881   13.6206 C.ar    1  UNL1        0.1004
     12 C          61.5359   88.2737   10.6672 C.3     1  UNL1        0.1343
     13 C          64.3367   91.5605   11.9329 C.ar    1  UNL1       -0.0000
     14 C          63.7082   91.5936   10.5714 C.ar    1  UNL1       -0.0003
     15 C          62.7746   90.4980   10.1495 C.ar    1  UNL1       -0.0024
     16 C          62.4695   89.3693   11.0891 C.ar    1  UNL1        0.0004
     17 C          63.0980   89.3362   12.4506 C.ar    1  UNL1       -0.0024
     18 C          64.0316   90.4318   12.8725 C.ar    1  UNL1       -0.0003
@<TRIPOS>BOND
     1    13    14   ar
     2    14    15   ar
     3    15    16   ar
     4    16    12    1
     5    12     1    1
     6     1     2   ar
     7     2     3   ar
     8     3     4   ar
     9     4     6    1
    10     6     7   ar
    11     7     8   ar
    12     8     9   ar
    13     9    10   ar
    14    10    11   ar
    15     4     5   ar
    16    16    17   ar
    17    17    18   ar
    18    18    13   ar
    19     5     1   ar
    20    11     6   ar
@<TRIPOS>MOLECULE
*****
 18 20 0 0 0
SMALL
GASTEIGER

@<TRIPOS>ATOM
      1 N          62.0588   89.4556   11.9363 N.ar    1  UNL1       -0.3036
      2 C          60.6988   89.9004   11.4861 C.ar    1  UNL1        0.1788
      3 N          60.2749   89.0176   10.3497 N.ar    1  UNL1       -0.2238
      4 C          61.3730   88.0272   10.0977 C.ar    1  UNL1        0.1017
      5 C          62.4754   88.2979   11.0782 C.ar    1  UNL1        0.0967
      6 C          61.3693   86.9545    9.0493 C.ar    1  UNL1        0.0383
      7 C          62.6145   86.1618    8.7829 C.ar    1  UNL1        0.0047
      8 C          62.6107   85.0890    7.7345 C.ar    1  UNL1        0.0207
      9 C          61.3618   84.8090    6.9524 C.ar    1  UNL1        0.0989
     10 N          60.1164   85.6017    7.2188 N.ar    1  UNL1       -0.2423
     11 C          60.1203   86.6745    8.2673 C.ar    1  UNL1        0.1004
     12 C          62.8612   90.0620   13.0491 C.3     1  UNL1        0.1343
     13 C          66.3821   92.7005   12.1054 C.ar    1  UNL1       -0.0000
     14 C          65.3080   92.4881   11.0802 C.ar    1  UNL1       -0.0003
     15 C          64.1343   91.6086   11.3948 C.ar    1  UNL1       -0.0024
     16 C          64.0348   90.9415   12.7345 C.ar    1  UNL1        0.0004
     17 C          65.1090   91.1539   13.7597 C.ar    1  UNL1       -0.0024
     18 C          66.2826   92.0334   13.4451 C.ar    1  UNL1       -0.0003
@<TRIPOS>BOND
     1    13    14   ar
     2    14    15   ar
     3    15    16   ar
     4    16    12    1
     5    12     1    1
     6     1     2   ar
     7     2     3   ar
     8     3     4   ar
     9     4     6    1
    10     6     7   ar
    11     7     8   ar
    12     8     9   ar
    13     9    10   ar
    14    10    11   ar
    15     4     5   ar
    16    16    17   ar
    17    17    18   ar
    18    18    13   ar
    19     5     1   ar
    20    11     6   ar
@<TRIPOS>MOLECULE
*****
 18 20 0 0 0
SMALL
GASTEIGER

@<TRIPOS>ATOM
      1 N          63.9998   90.9261   12.8462 N.ar    1  UNL1       -0.3036
      2 C          64.7737   91.4796   14.0058 C.ar    1  UNL1        0.1788
      3 N          65.6934   92.5435   13.4838 N.ar    1  UNL1       -0.2238
      4 C          65.4879   92.6475   12.0016 C.ar    1  UNL1        0.1017
      5 C          64.4412   91.6479   11.6075 C.ar    1  UNL1        0.0967
      6 C          66.2034   93.5862   11.0760 C.ar    1  UNL1        0.0383
      7 C          67.0520   93.0424    9.9651 C.ar    1  UNL1        0.0047
      8 C          67.7675   93.9812    9.0395 C.ar    1  UNL1        0.0207
      9 C          67.6345   95.4638    9.2248 C.ar    1  UNL1        0.0989
     10 N          66.7858   96.0076   10.3358 N.ar    1  UNL1       -0.2423
     11 C          66.0703   95.0688   11.2613 C.ar    1  UNL1        0.1004
     12 C          62.9661   89.8413   12.9134 C.3     1  UNL1        0.1343
     13 C          60.5040   88.8512    9.2791 C.ar    1  UNL1       -0.0000
     14 C          60.1628   90.0510   10.1120 C.ar    1  UNL1       -0.0003
     15 C          60.9835   90.3811   11.3235 C.ar    1  UNL1       -0.0024
     16 C          62.1454   89.5113   11.7019 C.ar    1  UNL1        0.0004
     17 C          62.4867   88.3114   10.8690 C.ar    1  UNL1       -0.0024
     18 C          61.6660   87.9814    9.6576 C.ar    1  UNL1       -0.0003
@<TRIPOS>BOND
     1    13    14   ar
     2    14    15   ar
     3    15    16   ar
     4    16    12    1
     5    12     1    1
     6     1     2   ar
     7     2     3   ar
     8     3     4   ar
     9     4     6    1
    10     6     7   ar
    11     7     8   ar
    12     8     9   ar
    13     9    10   ar
    14    10    11   ar
    15     4     5   ar
    16    16    17   ar
    17    17    18   ar
    18    18    13   ar
    19     5     1   ar
    20    11     6   ar
@<TRIPOS>MOLECULE
*****
 18 20 0 0 0
SMALL
GASTEIGER

@<TRIPOS>ATOM
      1 N          62.5731   86.9117   11.4772 N.ar    1  UNL1       -0.3036
      2 C          63.3054   87.1352   12.7671 C.ar    1  UNL1        0.1788
      3 N          63.4430   85.8106   13.4576 N.ar    1  UNL1       -0.2238
      4 C          62.7957   84.7685   12.5943 C.ar    1  UNL1        0.1017
      5 C          62.2581   85.4490   11.3705 C.ar    1  UNL1        0.0967
      6 C          62.7025   83.3033   12.9011 C.ar    1  UNL1        0.0383
      7 C          62.8872   82.2946   11.8065 C.ar    1  UNL1        0.0047
      8 C          62.7940   80.8292   12.1133 C.ar    1  UNL1        0.0207
      9 C          62.5160   80.3726   13.5148 C.ar    1  UNL1        0.0989
     10 N          62.3313   81.3813   14.6095 N.ar    1  UNL1       -0.2423
     11 C          62.4245   82.8467   14.3026 C.ar    1  UNL1        0.1004
     12 C          62.2181   87.9658   10.4708 C.3     1  UNL1        0.1343
     13 C          59.2068   87.0759    7.2474 C.ar    1  UNL1       -0.0000
     14 C          60.1319   85.9974    7.7280 C.ar    1  UNL1       -0.0003
     15 C          61.1356   86.2940    8.8025 C.ar    1  UNL1       -0.0024
     16 C          61.2143   87.6692    9.3963 C.ar    1  UNL1        0.0004
     17 C          60.2893   88.7477    8.9157 C.ar    1  UNL1       -0.0024
     18 C          59.2856   88.4511    7.8412 C.ar    1  UNL1       -0.0003
@<TRIPOS>BOND
     1    13    14   ar
     2    14    15   ar
     3    15    16   ar
     4    16    12    1
     5    12     1    1
     6     1     2   ar
     7     2     3   ar
     8     3     4   ar
     9     4     6    1
    10     6     7   ar
    11     7     8   ar
    12     8     9   ar
    13     9    10   ar
    14    10    11   ar
    15     4     5   ar
    16    16    17   ar
    17    17    18   ar
    18    18    13   ar
    19     5     1   ar
    20    11     6   ar
