@<TRIPOS>MOLECULE
*****
 43 48 0 0 0
SMALL
GASTEIGER

@<TRIPOS>ATOM
      1 N          62.2517   86.1093   10.6059 N.am    1  UNL1       -0.1909
      2 C          62.4051   87.3671   11.4087 C.2     1  UNL1        0.3173
      3 O          63.1297   87.4960   12.7157 O.2     1  UNL1       -0.2516
      4 N          61.7068   88.4734   10.6749 N.am    1  UNL1       -0.2544
      5 C          61.1217   87.8994    9.4186 C.3     1  UNL1        0.1341
      6 C          60.5967   87.1874    8.2072 C.3     1  UNL1        0.0446
      7 C          59.8126   87.9420    7.1749 C.3     1  UNL1        0.0745
      8 N          59.5534   89.4085    7.3540 N.3     1  UNL1       -0.2688
      9 C          60.0783   90.1205    8.5654 C.3     1  UNL1        0.0745
     10 C          60.8625   89.3659    9.5977 C.3     1  UNL1        0.0446
     11 C          61.4585   86.4383    9.3759 C.2     1  UNL1        0.2525
     12 O          61.0702   85.4753    8.2934 O.2     1  UNL1       -0.2724
     13 C          63.0249   82.8094   12.6704 C.ar    1  UNL1        0.1400
     14 C          63.8843   82.0601   11.6958 C.ar    1  UNL1        0.0370
     15 C          64.1995   82.6605   10.3579 C.ar    1  UNL1        0.0044
     16 C          63.6553   84.0103    9.9946 C.ar    1  UNL1        0.0156
     17 C          62.7959   84.7596   10.9692 C.ar    1  UNL1        0.0652
     18 C          62.4807   84.1592   12.3071 C.ar    1  UNL1        0.0522
     19 C          61.6233   81.1822   14.1326 C.3     1  UNL1        0.2525
     20 O          62.7098   82.2090   14.0084 O.3     1  UNL1       -0.4714
     21 C          61.6103   89.9028   11.1194 C.3     1  UNL1        0.1243
     22 C          62.8566   90.6761   11.4341 C.ar    1  UNL1        0.0252
     23 C          63.6000   91.3791   10.3372 C.ar    1  UNL1       -0.0004
     24 C          64.8462   92.1524   10.6518 C.ar    1  UNL1       -0.0001
     25 C          65.3490   92.2227   12.0633 C.ar    1  UNL1        0.0023
     26 C          64.6056   91.5196   13.1601 C.ar    1  UNL1        0.0294
     27 C          63.3594   90.7463   12.8455 C.ar    1  UNL1        0.1377
     28 F          62.6160   90.0433   13.9424 F       1  UNL1       -0.2044
     29 C          58.7692   90.1631    6.3216 C.3     1  UNL1        0.0991
     30 C          59.4839   90.9070    5.2327 C.ar    1  UNL1       -0.0061
     31 C          60.9238   90.6062    4.9392 C.ar    1  UNL1       -0.0029
     32 C          61.6385   91.3502    3.8502 C.ar    1  UNL1       -0.0001
     33 C          60.9133   92.3949    3.0549 C.ar    1  UNL1        0.0044
     34 C          59.4734   92.6957    3.3484 C.ar    1  UNL1       -0.0001
     35 C          58.7587   91.9518    4.4373 C.ar    1  UNL1       -0.0029
     36 C          61.6280   93.1388    1.9660 C.ar    1  UNL1        0.0531
     37 C          62.7127   94.1154    2.3119 C.ar    1  UNL1        0.1019
     38 N          63.4274   94.8594    1.2229 N.ar    1  UNL1       -0.2421
     39 C          63.0574   94.6267   -0.2119 C.ar    1  UNL1        0.1020
     40 C          61.9727   93.6500   -0.5579 C.ar    1  UNL1        0.0576
     41 C          61.2580   92.9061    0.5310 C.ar    1  UNL1        0.1417
     42 O          60.1733   91.9295    0.1850 O.3     1  UNL1       -0.4713
     43 C          59.1160   92.3046   -0.8106 C.3     1  UNL1        0.2525
@<TRIPOS>BOND
     1    19    20    1
     2    20    13    1
     3    13    14   ar
     4    14    15   ar
     5    15    16   ar
     6    16    17   ar
     7    17     1    1
     8     1     2   am
     9     2     3    2
    10     2     4   am
    11     4    21    1
    12    21    22    1
    13    22    23   ar
    14    23    24   ar
    15    24    25   ar
    16    25    26   ar
    17    26    27   ar
    18    27    28    1
    19     4     5    1
    20     5     6    1
    21     6     7    1
    22     7     8    1
    23     8    29    1
    24    29    30    1
    25    30    31   ar
    26    31    32   ar
    27    32    33   ar
    28    33    36    1
    29    36    37   ar
    30    37    38   ar
    31    38    39   ar
    32    39    40   ar
    33    40    41   ar
    34    41    42    1
    35    42    43    1
    36    33    34   ar
    37    34    35   ar
    38     8     9    1
    39     9    10    1
    40     5    11    1
    41    11    12    2
    42    17    18   ar
    43    18    13   ar
    44    11     1   am
    45    27    22   ar
    46    10     5    1
    47    35    30   ar
    48    41    36   ar
@<TRIPOS>MOLECULE
*****
 43 48 0 0 0
SMALL
GASTEIGER

@<TRIPOS>ATOM
      1 N          62.3915   85.9715   10.8233 N.am    1  UNL1       -0.1909
      2 C          62.5508   87.2587   11.5769 C.2     1  UNL1        0.3173
      3 O          63.3648   87.4570   12.8210 O.2     1  UNL1       -0.2516
      4 N          61.7530   88.3127   10.8679 N.am    1  UNL1       -0.2544
      5 C          61.1007   87.6770    9.6760 C.3     1  UNL1        0.1341
      6 C          60.5176   86.9073    8.5282 C.3     1  UNL1        0.0446
      7 C          59.6271   87.5974    7.5379 C.3     1  UNL1        0.0745
      8 N          59.3197   89.0571    7.6954 N.3     1  UNL1       -0.2688
      9 C          59.9029   89.8267    8.8432 C.3     1  UNL1        0.0745
     10 C          60.7934   89.1367    9.8335 C.3     1  UNL1        0.0446
     11 C          61.4953   86.2301    9.6484 C.2     1  UNL1        0.2525
     12 O          61.0687   85.2192    8.6256 O.2     1  UNL1       -0.2724
     13 C          63.6105   82.8563   12.9585 C.ar    1  UNL1        0.1400
     14 C          64.2721   82.0271   11.8979 C.ar    1  UNL1        0.0370
     15 C          64.3067   82.5127   10.4792 C.ar    1  UNL1        0.0044
     16 C          63.6799   83.8275   10.1210 C.ar    1  UNL1        0.0156
     17 C          63.0184   84.6567   11.1815 C.ar    1  UNL1        0.0652
     18 C          62.9837   84.1711   12.6003 C.ar    1  UNL1        0.0522
     19 C          62.7888   83.1238   15.4087 C.3     1  UNL1        0.2525
     20 O          63.5758   82.3707   14.3773 O.3     1  UNL1       -0.4714
     21 C          61.6293   89.7500   11.2786 C.3     1  UNL1        0.1243
     22 C          62.8537   90.5307   11.6546 C.ar    1  UNL1        0.0252
     23 C          63.3976   90.4465   13.0500 C.ar    1  UNL1       -0.0004
     24 C          64.6220   91.2271   13.4261 C.ar    1  UNL1       -0.0001
     25 C          65.3025   92.0920   12.4069 C.ar    1  UNL1        0.0023
     26 C          64.7586   92.1763   11.0115 C.ar    1  UNL1        0.0294
     27 C          63.5342   91.3956   10.6354 C.ar    1  UNL1        0.1377
     28 F          62.9903   91.4799    9.2400 F       1  UNL1       -0.2044
     29 C          58.4292   89.7471    6.7050 C.3     1  UNL1        0.0991
     30 C          59.0266   90.6078    5.6315 C.ar    1  UNL1       -0.0061
     31 C          60.4972   90.5364    5.3447 C.ar    1  UNL1       -0.0029
     32 C          61.0945   91.3971    4.2712 C.ar    1  UNL1       -0.0001
     33 C          60.2213   92.3291    3.4845 C.ar    1  UNL1        0.0044
     34 C          58.7507   92.4004    3.7713 C.ar    1  UNL1       -0.0001
     35 C          58.1533   91.5398    4.8447 C.ar    1  UNL1       -0.0029
     36 C          60.8187   93.1897    2.4110 C.ar    1  UNL1        0.0531
     37 C          59.9266   93.9790    1.4993 C.ar    1  UNL1        0.1019
     38 N          60.5241   94.8396    0.4258 N.ar    1  UNL1       -0.2421
     39 C          62.0136   94.9110    0.2640 C.ar    1  UNL1        0.1020
     40 C          62.9057   94.1217    1.1757 C.ar    1  UNL1        0.0576
     41 C          62.3083   93.2611    2.2492 C.ar    1  UNL1        0.1417
     42 O          63.2004   92.4718    3.1609 O.3     1  UNL1       -0.4713
     43 C          63.8347   91.2023    2.6751 C.3     1  UNL1        0.2525
@<TRIPOS>BOND
     1    19    20    1
     2    20    13    1
     3    13    14   ar
     4    14    15   ar
     5    15    16   ar
     6    16    17   ar
     7    17     1    1
     8     1     2   am
     9     2     3    2
    10     2     4   am
    11     4    21    1
    12    21    22    1
    13    22    23   ar
    14    23    24   ar
    15    24    25   ar
    16    25    26   ar
    17    26    27   ar
    18    27    28    1
    19     4     5    1
    20     5     6    1
    21     6     7    1
    22     7     8    1
    23     8    29    1
    24    29    30    1
    25    30    31   ar
    26    31    32   ar
    27    32    33   ar
    28    33    36    1
    29    36    37   ar
    30    37    38   ar
    31    38    39   ar
    32    39    40   ar
    33    40    41   ar
    34    41    42    1
    35    42    43    1
    36    33    34   ar
    37    34    35   ar
    38     8     9    1
    39     9    10    1
    40     5    11    1
    41    11    12    2
    42    17    18   ar
    43    18    13   ar
    44    11     1   am
    45    27    22   ar
    46    10     5    1
    47    35    30   ar
    48    41    36   ar
@<TRIPOS>MOLECULE
*****
 43 48 0 0 0
SMALL
GASTEIGER

@<TRIPOS>ATOM
      1 N          62.9977   89.2489   12.3577 N.am    1  UNL1       -0.1909
      2 C          62.8538   87.7562   12.3257 C.2     1  UNL1        0.3173
      3 O          63.4497   86.7918   13.3079 O.2     1  UNL1       -0.2516
      4 N          62.0093   87.3971   11.1392 N.am    1  UNL1       -0.2544
      5 C          61.6312   88.6680   10.4377 C.3     1  UNL1        0.1341
      6 C          61.3353   90.0145    9.8467 C.3     1  UNL1        0.0446
      7 C          60.4941   90.1220    8.6094 C.3     1  UNL1        0.0745
      8 N          59.9489   88.8830    7.9632 N.3     1  UNL1       -0.2688
      9 C          60.2449   87.5365    8.5541 C.3     1  UNL1        0.0745
     10 C          61.0860   87.4290    9.7914 C.3     1  UNL1        0.0446
     11 C          62.2421   89.8125   11.1907 C.2     1  UNL1        0.2525
     12 O          62.1190   91.2654   10.8387 O.2     1  UNL1       -0.2724
     13 C          65.6173   91.7634   13.9593 C.ar    1  UNL1        0.1400
     14 C          65.2930   91.6202   15.4168 C.ar    1  UNL1        0.0370
     15 C          64.2036   90.6867   15.8545 C.ar    1  UNL1        0.0044
     16 C          63.4385   89.8962   14.8348 C.ar    1  UNL1        0.0156
     17 C          63.7628   90.0394   13.3774 C.ar    1  UNL1        0.0652
     18 C          64.8522   90.9729   12.9395 C.ar    1  UNL1        0.0522
     19 C          66.3679   93.9281   12.7342 C.3     1  UNL1        0.2525
     20 O          66.7066   92.6969   13.5214 O.3     1  UNL1       -0.4714
     21 C          61.6125   86.0107   10.7265 C.3     1  UNL1        0.1243
     22 C          62.5484   84.8619   10.9598 C.ar    1  UNL1        0.0252
     23 C          62.5865   84.1855   12.2980 C.ar    1  UNL1       -0.0004
     24 C          63.5223   83.0367   12.5314 C.ar    1  UNL1       -0.0001
     25 C          64.4202   82.5644   11.4266 C.ar    1  UNL1        0.0023
     26 C          64.3822   83.2409   10.0883 C.ar    1  UNL1        0.0294
     27 C          63.4463   84.3896    9.8549 C.ar    1  UNL1        0.1377
     28 F          63.4083   85.0661    8.5166 F       1  UNL1       -0.2044
     29 C          59.1077   88.9906    6.7258 C.3     1  UNL1        0.0991
     30 C          59.2965   90.1464    5.7887 C.ar    1  UNL1       -0.0061
     31 C          60.6684   90.4904    5.2888 C.ar    1  UNL1       -0.0029
     32 C          60.8571   91.6463    4.3516 C.ar    1  UNL1       -0.0001
     33 C          59.6742   92.4582    3.9143 C.ar    1  UNL1        0.0044
     34 C          58.3023   92.1142    4.4141 C.ar    1  UNL1       -0.0001
     35 C          58.1135   90.9584    5.3513 C.ar    1  UNL1       -0.0029
     36 C          59.8630   93.6140    2.9772 C.ar    1  UNL1        0.0531
     37 C          59.8634   95.0172    3.5074 C.ar    1  UNL1        0.1019
     38 N          60.0523   96.1731    2.5701 N.ar    1  UNL1       -0.2421
     39 C          60.2407   95.9258    1.1027 C.ar    1  UNL1        0.1020
     40 C          60.2402   94.5226    0.5725 C.ar    1  UNL1        0.0576
     41 C          60.0514   93.3668    1.5097 C.ar    1  UNL1        0.1417
     42 O          60.0509   91.9636    0.9794 O.3     1  UNL1       -0.4713
     43 C          60.4810   91.6952   -0.4323 C.3     1  UNL1        0.2525
@<TRIPOS>BOND
     1    19    20    1
     2    20    13    1
     3    13    14   ar
     4    14    15   ar
     5    15    16   ar
     6    16    17   ar
     7    17     1    1
     8     1     2   am
     9     2     3    2
    10     2     4   am
    11     4    21    1
    12    21    22    1
    13    22    23   ar
    14    23    24   ar
    15    24    25   ar
    16    25    26   ar
    17    26    27   ar
    18    27    28    1
    19     4     5    1
    20     5     6    1
    21     6     7    1
    22     7     8    1
    23     8    29    1
    24    29    30    1
    25    30    31   ar
    26    31    32   ar
    27    32    33   ar
    28    33    36    1
    29    36    37   ar
    30    37    38   ar
    31    38    39   ar
    32    39    40   ar
    33    40    41   ar
    34    41    42    1
    35    42    43    1
    36    33    34   ar
    37    34    35   ar
    38     8     9    1
    39     9    10    1
    40     5    11    1
    41    11    12    2
    42    17    18   ar
    43    18    13   ar
    44    11     1   am
    45    27    22   ar
    46    10     5    1
    47    35    30   ar
    48    41    36   ar
@<TRIPOS>MOLECULE
*****
 43 48 0 0 0
SMALL
GASTEIGER

@<TRIPOS>ATOM
      1 N          62.7898   86.7716   12.0483 N.am    1  UNL1       -0.1909
      2 C          63.1062   88.2165   12.2981 C.2     1  UNL1        0.3173
      3 O          64.0431   88.7460   13.3429 O.2     1  UNL1       -0.2516
      4 N          62.3213   89.0388   11.3195 N.am    1  UNL1       -0.2544
      5 C          61.5196   88.1022   10.4649 C.3     1  UNL1        0.1341
      6 C          60.7815   87.0486    9.6936 C.3     1  UNL1        0.0446
      7 C          59.8533   87.4438    8.5835 C.3     1  UNL1        0.0745
      8 N          59.6633   88.8926    8.2448 N.3     1  UNL1       -0.2688
      9 C          60.4014   89.9463    9.0161 C.3     1  UNL1        0.0745
     10 C          61.3296   89.5511   10.1262 C.3     1  UNL1        0.0446
     11 C          61.8092   86.7010   10.9153 C.2     1  UNL1        0.2525
     12 O          61.2214   85.4491   10.3348 O.2     1  UNL1       -0.2724
     13 C          63.9609   83.0787   12.9088 C.ar    1  UNL1        0.1400
     14 C          64.4845   83.2648   14.3021 C.ar    1  UNL1        0.0370
     15 C          64.4432   84.6198   14.9441 C.ar    1  UNL1        0.0044
     16 C          63.8783   85.7887   14.1928 C.ar    1  UNL1        0.0156
     17 C          63.3547   85.6027   12.7996 C.ar    1  UNL1        0.0652
     18 C          63.3960   84.2477   12.1576 C.ar    1  UNL1        0.0522
     19 C          62.7293   80.9648   12.0343 C.3     1  UNL1        0.2525
     20 O          64.0022   81.7237   12.2668 O.3     1  UNL1       -0.4714
     21 C          62.3354   90.5350   11.2140 C.3     1  UNL1        0.1243
     22 C          63.6006   91.2941   11.4843 C.ar    1  UNL1        0.0252
     23 C          64.4513   91.7648   10.3421 C.ar    1  UNL1       -0.0004
     24 C          65.7166   92.5238   10.6123 C.ar    1  UNL1       -0.0001
     25 C          66.1311   92.8122   12.0248 C.ar    1  UNL1        0.0023
     26 C          65.2803   92.3414   13.1670 C.ar    1  UNL1        0.0294
     27 C          64.0151   91.5824   12.8967 C.ar    1  UNL1        0.1377
     28 F          63.1644   91.1117   14.0390 F       1  UNL1       -0.2044
     29 C          58.7350   89.2878    7.1347 C.3     1  UNL1        0.0991
     30 C          59.2185   90.1897    6.0380 C.ar    1  UNL1       -0.0061
     31 C          58.2550   91.1003    5.3362 C.ar    1  UNL1       -0.0029
     32 C          58.7386   92.0022    4.2395 C.ar    1  UNL1       -0.0001
     33 C          60.1857   91.9935    3.8446 C.ar    1  UNL1        0.0044
     34 C          61.1492   91.0829    4.5464 C.ar    1  UNL1       -0.0001
     35 C          60.6657   90.1811    5.6431 C.ar    1  UNL1       -0.0029
     36 C          60.6692   92.8954    2.7479 C.ar    1  UNL1        0.0531
     37 C          59.6824   93.6546    1.9114 C.ar    1  UNL1        0.1019
     38 N          60.1660   94.5565    0.8146 N.ar    1  UNL1       -0.2421
     39 C          61.6363   94.6992    0.5545 C.ar    1  UNL1        0.1020
     40 C          62.6231   93.9400    1.3911 C.ar    1  UNL1        0.0576
     41 C          62.1396   93.0381    2.4877 C.ar    1  UNL1        0.1417
     42 O          63.1264   92.2789    3.3243 O.3     1  UNL1       -0.4713
     43 C          63.6688   90.9673    2.8390 C.3     1  UNL1        0.2525
@<TRIPOS>BOND
     1    19    20    1
     2    20    13    1
     3    13    14   ar
     4    14    15   ar
     5    15    16   ar
     6    16    17   ar
     7    17     1    1
     8     1     2   am
     9     2     3    2
    10     2     4   am
    11     4    21    1
    12    21    22    1
    13    22    23   ar
    14    23    24   ar
    15    24    25   ar
    16    25    26   ar
    17    26    27   ar
    18    27    28    1
    19     4     5    1
    20     5     6    1
    21     6     7    1
    22     7     8    1
    23     8    29    1
    24    29    30    1
    25    30    31   ar
    26    31    32   ar
    27    32    33   ar
    28    33    36    1
    29    36    37   ar
    30    37    38   ar
    31    38    39   ar
    32    39    40   ar
    33    40    41   ar
    34    41    42    1
    35    42    43    1
    36    33    34   ar
    37    34    35   ar
    38     8     9    1
    39     9    10    1
    40     5    11    1
    41    11    12    2
    42    17    18   ar
    43    18    13   ar
    44    11     1   am
    45    27    22   ar
    46    10     5    1
    47    35    30   ar
    48    41    36   ar
