@<TRIPOS>MOLECULE
*****
 45 49 0 0 0
SMALL
GASTEIGER

@<TRIPOS>ATOM
      1 C          63.7556   89.8059   12.2715 C.3     1  UNL1        0.1245
      2 N          64.2871   90.7474   13.3112 N.am    1  UNL1       -0.2735
      3 C          64.4021   90.3010   14.7386 C.2     1  UNL1        0.2492
      4 O          64.9336   91.2426   15.7784 O.2     1  UNL1       -0.2699
      5 C          63.9857   88.9131   15.1263 C.ar    1  UNL1        0.0567
      6 C          63.4032   88.6567   16.4846 C.ar    1  UNL1        0.0063
      7 C          62.9868   87.2688   16.8722 C.ar    1  UNL1        0.0225
      8 C          63.1529   86.1373   15.9016 C.ar    1  UNL1        0.1202
      9 N          62.8354   84.6746   16.0013 N.ar    1  UNL1       -0.1946
     10 C          63.2218   84.0271   14.7047 C.ar    1  UNL1        0.2924
     11 O          63.7780   85.0895   13.8036 O.2     1  UNL1       -0.4237
     12 C          63.7354   86.3937   14.5434 C.ar    1  UNL1        0.1662
     13 C          64.1518   87.7816   14.1557 C.ar    1  UNL1        0.0437
     14 N          63.0773   82.5724   14.3681 N.pl3   1  UNL1       -0.2636
     15 C          61.8152   81.7672   14.4608 C.3     1  UNL1        0.0951
     16 C          62.1275   80.3647   14.0297 C.3     1  UNL1        0.0233
     17 C          63.5825   80.3034   13.6706 C.3     1  UNL1        0.0233
     18 C          64.1696   81.6679   13.8797 C.3     1  UNL1        0.0951
     19 C          64.7035   92.1353   12.9235 C.3     1  UNL1        0.0937
     20 C          64.7956   92.3772   10.8181 C.3     1  UNL1        0.0017
     21 C          65.8057   92.3366   11.9262 C.3     1  UNL1        0.0183
     22 C          66.8159   92.2960   13.0344 C.3     1  UNL1        0.0017
     23 C          66.9080   92.5378   10.9289 C.3     1  UNL1        0.0017
     24 C          62.2844   89.5226   12.1980 C.3     1  UNL1        0.1484
     25 O          61.3710   90.0139   13.2816 O.3     1  UNL1       -0.3810
     26 H          61.8883   90.4922   13.9484 H       1  UNL1        0.2105
     27 C          61.7267   88.7480   11.0409 C.3     1  UNL1        0.1075
     28 N          61.6099   89.3944    9.6923 N.am    1  UNL1       -0.2695
     29 C          60.4374   89.0826    8.8102 C.2     1  UNL1        0.4020
     30 O          59.3817   88.1244    9.2767 O.2     1  UNL1       -0.2264
     31 H          62.3028   90.0232    9.3861 H       1  UNL1        0.1528
     32 O          60.3206   89.7289    7.4616 O.3     1  UNL1       -0.4291
     33 C          59.0678   89.5590    6.6545 C.3     1  UNL1        0.2447
     34 C          58.6844   90.5933    5.6380 C.ar    1  UNL1        0.0714
     35 C          57.2860   90.9922    5.2701 C.ar    1  UNL1        0.1053
     36 N          57.3694   92.0557    4.2157 N.ar    1  UNL1       -0.2350
     37 C          58.8195   92.3142    3.9319 C.ar    1  UNL1        0.1343
     38 S          59.6322   91.4104    4.8109 S.2     1  UNL1       -0.0652
     39 C          61.2857   87.3272   11.2323 C.3     1  UNL1        0.0485
     40 C          62.0417   86.2120   10.5730 C.ar    1  UNL1       -0.0204
     41 C          62.4282   84.9975   11.3640 C.ar    1  UNL1       -0.0042
     42 C          63.1843   83.8823   10.7046 C.ar    1  UNL1       -0.0003
     43 C          63.5539   83.9816    9.2543 C.ar    1  UNL1       -0.0000
     44 C          63.1674   85.1961    8.4632 C.ar    1  UNL1       -0.0003
     45 C          62.4113   86.3113    9.1226 C.ar    1  UNL1       -0.0042
@<TRIPOS>BOND
     1    20    21    1
     2    21    22    1
     3    21    23    1
     4    21    19    1
     5    19     2    1
     6     2     1    1
     7     1    24    1
     8    24    25    1
     9    24    27    1
    10    27    39    1
    11    39    40    1
    12    40    41   ar
    13    41    42   ar
    14    42    43   ar
    15    43    44   ar
    16    44    45   ar
    17    27    28    1
    18    28    29   am
    19    29    30    2
    20    29    32    1
    21    32    33    1
    22    33    34    1
    23    34    35   ar
    24    35    36   ar
    25    36    37   ar
    26    37    38   ar
    27     2     3   am
    28     3     4    2
    29     3     5    1
    30     5     6   ar
    31     6     7   ar
    32     7     8   ar
    33     8     9   ar
    34     9    10   ar
    35    10    14    1
    36    14    15    1
    37    15    16    1
    38    16    17    1
    39    17    18    1
    40    10    11   ar
    41    11    12   ar
    42    12    13   ar
    43    45    40   ar
    44    38    34   ar
    45    13     5   ar
    46    12     8   ar
    47    18    14    1
    48    25    26    1
    49    28    31    1
@<TRIPOS>MOLECULE
*****
 45 49 0 0 0
SMALL
GASTEIGER

@<TRIPOS>ATOM
      1 C          60.7168   89.8767    9.0065 C.3     1  UNL1        0.1245
      2 N          59.9725   88.5986    8.7562 N.am    1  UNL1       -0.2735
      3 C          59.1711   88.4311    7.4994 C.2     1  UNL1        0.2492
      4 O          58.4269   87.1530    7.2492 O.2     1  UNL1       -0.2699
      5 C          59.1139   89.5417    6.4927 C.ar    1  UNL1        0.0567
      6 C          57.8073   90.2138    6.1909 C.ar    1  UNL1        0.0063
      7 C          57.7502   91.3243    5.1842 C.ar    1  UNL1        0.0225
      8 C          58.9996   91.7628    4.4795 C.ar    1  UNL1        0.1202
      9 N          59.2505   92.8212    3.4464 N.ar    1  UNL1       -0.1946
     10 C          60.7121   92.8031    3.1099 C.ar    1  UNL1        0.2924
     11 O          61.3645   91.7337    3.9349 O.2     1  UNL1       -0.4237
     12 C          60.3062   91.0908    4.7814 C.ar    1  UNL1        0.1662
     13 C          60.3633   89.9802    5.7880 C.ar    1  UNL1        0.0437
     14 N          61.4005   93.6975    2.1218 N.pl3   1  UNL1       -0.2636
     15 C          60.8196   94.9298    1.4941 C.3     1  UNL1        0.0951
     16 C          61.8508   95.5105    0.5723 C.3     1  UNL1        0.0233
     17 C          63.0688   94.6370    0.6303 C.3     1  UNL1        0.0233
     18 C          62.7905   93.5165    1.5880 C.3     1  UNL1        0.0951
     19 C          60.0297   87.4880    9.7629 C.3     1  UNL1        0.0937
     20 C          61.1508   86.5503   11.3004 C.3     1  UNL1        0.0017
     21 C          61.2166   86.5716    9.8020 C.3     1  UNL1        0.0183
     22 C          61.2825   86.5929    8.3036 C.3     1  UNL1        0.0017
     23 C          62.4035   85.6552    9.8411 C.3     1  UNL1        0.0017
     24 C          61.1563   90.2287   10.3968 C.3     1  UNL1        0.1484
     25 O          60.1347   90.4593   11.4706 O.3     1  UNL1       -0.3810
     26 H          59.2455   90.3424   11.1013 H       1  UNL1        0.2105
     27 C          62.6176   90.3501   10.7132 C.3     1  UNL1        0.1075
     28 N          63.3477   89.1987   11.3387 N.am    1  UNL1       -0.2695
     29 C          63.1744   88.9054   12.7995 C.2     1  UNL1        0.4020
     30 O          62.2710   89.7635   13.6348 O.2     1  UNL1       -0.2264
     31 H          63.9406   88.6355   10.7905 H       1  UNL1        0.1528
     32 O          63.9045   87.7540   13.4251 O.3     1  UNL1       -0.4291
     33 C          64.3211   87.8231   14.8644 C.3     1  UNL1        0.2447
     34 C          63.5935   87.0121   15.8955 C.ar    1  UNL1        0.0714
     35 C          62.9096   87.5489   17.1178 C.ar    1  UNL1        0.1053
     36 N          62.3156   86.3906   17.8631 N.ar    1  UNL1       -0.2350
     37 C          62.6324   85.1378   17.1013 C.ar    1  UNL1        0.1343
     38 S          63.4222   85.5220   15.8853 S.2     1  UNL1       -0.0652
     39 C          63.3487   91.6229   10.4041 C.3     1  UNL1        0.0485
     40 C          64.6087   91.9625   11.1436 C.ar    1  UNL1       -0.0204
     41 C          64.6386   91.9012   12.6421 C.ar    1  UNL1       -0.0042
     42 C          65.8987   92.2409   13.3816 C.ar    1  UNL1       -0.0003
     43 C          67.1288   92.6418   12.6227 C.ar    1  UNL1       -0.0000
     44 C          67.0989   92.7031   11.1242 C.ar    1  UNL1       -0.0003
     45 C          65.8389   92.3634   10.3847 C.ar    1  UNL1       -0.0042
@<TRIPOS>BOND
     1    20    21    1
     2    21    22    1
     3    21    23    1
     4    21    19    1
     5    19     2    1
     6     2     1    1
     7     1    24    1
     8    24    25    1
     9    24    27    1
    10    27    39    1
    11    39    40    1
    12    40    41   ar
    13    41    42   ar
    14    42    43   ar
    15    43    44   ar
    16    44    45   ar
    17    27    28    1
    18    28    29   am
    19    29    30    2
    20    29    32    1
    21    32    33    1
    22    33    34    1
    23    34    35   ar
    24    35    36   ar
    25    36    37   ar
    26    37    38   ar
    27     2     3   am
    28     3     4    2
    29     3     5    1
    30     5     6   ar
    31     6     7   ar
    32     7     8   ar
    33     8     9   ar
    34     9    10   ar
    35    10    14    1
    36    14    15    1
    37    15    16    1
    38    16    17    1
    39    17    18    1
    40    10    11   ar
    41    11    12   ar
    42    12    13   ar
    43    45    40   ar
    44    38    34   ar
    45    13     5   ar
    46    12     8   ar
    47    18    14    1
    48    25    26    1
    49    28    31    1
@<TRIPOS>MOLECULE
*****
 45 49 0 0 0
SMALL
GASTEIGER

@<TRIPOS>ATOM
      1 C          62.5814   89.0107   11.4975 C.3     1  UNL1        0.1245
      2 N          63.2914   89.9484   12.4284 N.am    1  UNL1       -0.2735
      3 C          63.9406   89.4207   13.6734 C.2     1  UNL1        0.2492
      4 O          64.6506   90.3584   14.6043 O.2     1  UNL1       -0.2699
      5 C          63.8799   87.9551   13.9875 C.ar    1  UNL1        0.0567
      6 C          64.1969   87.4709   15.3713 C.ar    1  UNL1        0.0063
      7 C          64.1362   86.0054   15.6853 C.ar    1  UNL1        0.0225
      8 C          63.7584   85.0242   14.6155 C.ar    1  UNL1        0.1202
      9 N          63.6156   83.5310   14.6282 N.ar    1  UNL1       -0.1946
     10 C          63.2103   83.0924   13.2522 C.ar    1  UNL1        0.2924
     11 O          63.1027   84.3145   12.3891 O.2     1  UNL1       -0.4237
     12 C          63.4414   85.5084   13.2317 C.ar    1  UNL1        0.1662
     13 C          63.5021   86.9739   12.9177 C.ar    1  UNL1        0.0437
     14 N          62.9572   81.6797   12.8158 N.pl3   1  UNL1       -0.2636
     15 C          62.5496   80.5421   13.7045 C.3     1  UNL1        0.0951
     16 C          62.4077   79.3160   12.8520 C.3     1  UNL1        0.0233
     17 C          62.7275   79.6960   11.4366 C.3     1  UNL1        0.0233
     18 C          63.0671   81.1569   11.4143 C.3     1  UNL1        0.0951
     19 C          63.3521   91.4139   12.1143 C.3     1  UNL1        0.0937
     20 C          63.6740   91.5848   10.0245 C.3     1  UNL1        0.0017
     21 C          64.4554   91.9509   11.2515 C.3     1  UNL1        0.0183
     22 C          65.2367   92.3171   12.4784 C.3     1  UNL1        0.0017
     23 C          65.5586   92.4879   10.3887 C.3     1  UNL1        0.0017
     24 C          61.1757   89.3051   11.0645 C.3     1  UNL1        0.1484
     25 O          60.2889   90.1564   11.9240 O.3     1  UNL1       -0.3810
     26 H          60.7752   90.4322   12.7167 H       1  UNL1        0.2105
     27 C          60.6569   88.7482    9.7719 C.3     1  UNL1        0.1075
     28 N          60.5099   89.6414    8.5758 N.am    1  UNL1       -0.2695
     29 C          59.4325   89.3729    7.5672 C.2     1  UNL1        0.4020
     30 O          58.5022   88.2112    7.7548 O.2     1  UNL1       -0.2264
     31 H          61.1204   90.4038    8.4527 H       1  UNL1        0.1528
     32 O          59.2854   90.2660    6.3711 O.3     1  UNL1       -0.4291
     33 C          60.4571   90.5062    5.4659 C.3     1  UNL1        0.2447
     34 C          60.3755   91.5542    4.3957 C.ar    1  UNL1        0.0714
     35 C          59.1828   92.4108    4.0896 C.ar    1  UNL1        0.1053
     36 N          59.5424   93.3155    2.9485 N.ar    1  UNL1       -0.2350
     37 C          60.9575   93.0181    2.5494 C.ar    1  UNL1        0.1343
     38 S          61.4723   91.9296    3.4438 S.2     1  UNL1       -0.0652
     39 C          60.2852   87.2982    9.6755 C.3     1  UNL1        0.0485
     40 C          61.1033   86.3690    8.8286 C.ar    1  UNL1       -0.0204
     41 C          60.5363   85.8225    7.5520 C.ar    1  UNL1       -0.0042
     42 C          61.3545   84.8933    6.7051 C.ar    1  UNL1       -0.0003
     43 C          62.7396   84.5105    7.1349 C.ar    1  UNL1       -0.0000
     44 C          63.3067   85.0570    8.4116 C.ar    1  UNL1       -0.0003
     45 C          62.4886   85.9862    9.2584 C.ar    1  UNL1       -0.0042
@<TRIPOS>BOND
     1    20    21    1
     2    21    22    1
     3    21    23    1
     4    21    19    1
     5    19     2    1
     6     2     1    1
     7     1    24    1
     8    24    25    1
     9    24    27    1
    10    27    39    1
    11    39    40    1
    12    40    41   ar
    13    41    42   ar
    14    42    43   ar
    15    43    44   ar
    16    44    45   ar
    17    27    28    1
    18    28    29   am
    19    29    30    2
    20    29    32    1
    21    32    33    1
    22    33    34    1
    23    34    35   ar
    24    35    36   ar
    25    36    37   ar
    26    37    38   ar
    27     2     3   am
    28     3     4    2
    29     3     5    1
    30     5     6   ar
    31     6     7   ar
    32     7     8   ar
    33     8     9   ar
    34     9    10   ar
    35    10    14    1
    36    14    15    1
    37    15    16    1
    38    16    17    1
    39    17    18    1
    40    10    11   ar
    41    11    12   ar
    42    12    13   ar
    43    45    40   ar
    44    38    34   ar
    45    13     5   ar
    46    12     8   ar
    47    18    14    1
    48    25    26    1
    49    28    31    1
@<TRIPOS>MOLECULE
*****
 45 49 0 0 0
SMALL
GASTEIGER

@<TRIPOS>ATOM
      1 C          66.9673   91.2331   13.9661 C.3     1  UNL1        0.1245
      2 N          66.1626   91.7443   15.1241 N.am    1  UNL1       -0.2735
      3 C          64.8903   91.0535   15.5164 C.2     1  UNL1        0.2492
      4 O          64.0856   91.5647   16.6745 O.2     1  UNL1       -0.2699
      5 C          64.4226   89.8514   14.7507 C.ar    1  UNL1        0.0567
      6 C          63.7983   90.0204   13.3974 C.ar    1  UNL1        0.0063
      7 C          63.3307   88.8183   12.6317 C.ar    1  UNL1        0.0225
      8 C          63.4874   87.4472   13.2195 C.ar    1  UNL1        0.1202
      9 N          63.1237   86.0864   12.7035 N.ar    1  UNL1       -0.1946
     10 C          63.5233   85.0764   13.7380 C.ar    1  UNL1        0.2924
     11 O          64.1339   85.8129   14.8933 O.2     1  UNL1       -0.4237
     12 C          64.1117   87.2781   14.5728 C.ar    1  UNL1        0.1662
     13 C          64.5793   88.4802   15.3384 C.ar    1  UNL1        0.0437
     14 N          63.3438   83.5907   13.6352 N.pl3   1  UNL1       -0.2636
     15 C          62.4323   82.7522   14.4816 C.3     1  UNL1        0.0951
     16 C          62.5695   81.3259   14.0375 C.3     1  UNL1        0.0233
     17 C          63.5656   81.2831   12.9168 C.3     1  UNL1        0.0233
     18 C          64.0442   82.6829   12.6682 C.3     1  UNL1        0.0951
     19 C          66.6303   92.9464   15.8898 C.3     1  UNL1        0.0937
     20 C          67.8271   94.5760   15.2480 C.3     1  UNL1        0.0017
     21 C          68.0924   93.2763   15.9482 C.3     1  UNL1        0.0183
     22 C          68.3576   91.9765   16.6485 C.3     1  UNL1        0.0017
     23 C          69.5545   93.6061   16.0066 C.3     1  UNL1        0.0017
     24 C          67.1632   92.0916   12.7517 C.3     1  UNL1        0.1484
     25 O          68.4175   91.9659   11.9387 O.3     1  UNL1       -0.3810
     26 H          68.9914   91.2901   12.3322 H       1  UNL1        0.2105
     27 C          66.1048   93.0759   12.3504 C.3     1  UNL1        0.1075
     28 N          64.6937   92.6143   12.1367 N.am    1  UNL1       -0.2695
     29 C          64.2807   92.0550   10.8075 C.2     1  UNL1        0.4020
     30 O          65.2789   91.9574    9.6921 O.2     1  UNL1       -0.2264
     31 H          64.0385   92.6783   12.8688 H       1  UNL1        0.1528
     32 O          62.8696   91.5934   10.5937 O.3     1  UNL1       -0.4291
     33 C          62.5791   90.5010    9.6078 C.3     1  UNL1        0.2447
     34 C          61.6191   89.4048    9.9641 C.ar    1  UNL1        0.0714
     35 C          61.7917   87.9470    9.6561 C.ar    1  UNL1        0.1053
     36 N          60.5973   87.2152   10.1927 N.ar    1  UNL1       -0.2350
     37 C          59.6864   88.2209   10.8323 C.ar    1  UNL1        0.1343
     38 S          60.3179   89.5741   10.6910 S.2     1  UNL1       -0.0652
     39 C          66.4575   94.5217   12.1628 C.3     1  UNL1        0.0485
     40 C          66.4535   95.1224   10.7884 C.ar    1  UNL1       -0.0204
     41 C          65.5234   96.2546   10.4675 C.ar    1  UNL1       -0.0042
     42 C          65.5194   96.8554    9.0930 C.ar    1  UNL1       -0.0003
     43 C          66.4454   96.3239    8.0395 C.ar    1  UNL1       -0.0000
     44 C          67.3755   95.1916    8.3604 C.ar    1  UNL1       -0.0003
     45 C          67.3796   94.5909    9.7348 C.ar    1  UNL1       -0.0042
@<TRIPOS>BOND
     1    20    21    1
     2    21    22    1
     3    21    23    1
     4    21    19    1
     5    19     2    1
     6     2     1    1
     7     1    24    1
     8    24    25    1
     9    24    27    1
    10    27    39    1
    11    39    40    1
    12    40    41   ar
    13    41    42   ar
    14    42    43   ar
    15    43    44   ar
    16    44    45   ar
    17    27    28    1
    18    28    29   am
    19    29    30    2
    20    29    32    1
    21    32    33    1
    22    33    34    1
    23    34    35   ar
    24    35    36   ar
    25    36    37   ar
    26    37    38   ar
    27     2     3   am
    28     3     4    2
    29     3     5    1
    30     5     6   ar
    31     6     7   ar
    32     7     8   ar
    33     8     9   ar
    34     9    10   ar
    35    10    14    1
    36    14    15    1
    37    15    16    1
    38    16    17    1
    39    17    18    1
    40    10    11   ar
    41    11    12   ar
    42    12    13   ar
    43    45    40   ar
    44    38    34   ar
    45    13     5   ar
    46    12     8   ar
    47    18    14    1
    48    25    26    1
    49    28    31    1
@<TRIPOS>MOLECULE
*****
 45 49 0 0 0
SMALL
GASTEIGER

@<TRIPOS>ATOM
      1 C          62.7287   87.2421   11.1031 C.3     1  UNL1        0.1245
      2 N          61.4858   87.8366   10.5101 N.am    1  UNL1       -0.2735
      3 C          61.3726   89.3226   10.3401 C.2     1  UNL1        0.2492
      4 O          60.1296   89.9172    9.7471 O.2     1  UNL1       -0.2699
      5 C          62.5024   90.2142   10.7630 C.ar    1  UNL1        0.0567
      6 C          62.9848   91.2994    9.8468 C.ar    1  UNL1        0.0063
      7 C          64.1145   92.1908   10.2697 C.ar    1  UNL1        0.0225
      8 C          64.7619   91.9971   11.6089 C.ar    1  UNL1        0.1202
      9 N          65.8868   92.7157   12.2933 N.ar    1  UNL1       -0.1946
     10 C          66.0996   92.0745   13.6325 C.ar    1  UNL1        0.2924
     11 O          65.1062   90.9597   13.7758 O.2     1  UNL1       -0.4237
     12 C          64.2795   90.9119   12.5251 C.ar    1  UNL1        0.1662
     13 C          63.1497   90.0204   12.1022 C.ar    1  UNL1        0.0437
     14 N          67.1256   92.4774   14.6500 N.pl3   1  UNL1       -0.2636
     15 C          67.9213   91.5463   15.5160 C.3     1  UNL1        0.0951
     16 C          68.8235   92.3756   16.3812 C.3     1  UNL1        0.0233
     17 C          68.5853   93.8190   16.0499 C.3     1  UNL1        0.0233
     18 C          67.5358   93.8818   14.9798 C.3     1  UNL1        0.0951
     19 C          60.3560   86.9451   10.0872 C.3     1  UNL1        0.0937
     20 C          61.6422   85.9366    8.7349 C.3     1  UNL1        0.0017
     21 C          60.2511   86.4928    8.6609 C.3     1  UNL1        0.0183
     22 C          58.8600   87.0490    8.5868 C.3     1  UNL1        0.0017
     23 C          60.1462   86.0405    7.2345 C.3     1  UNL1        0.0017
     24 C          62.6252   86.1135   12.0858 C.3     1  UNL1        0.1484
     25 O          61.3878   85.2668   12.1279 O.3     1  UNL1       -0.3810
     26 H          60.7584   85.5807   11.4599 H       1  UNL1        0.2105
     27 C          63.7591   85.8318   13.0265 C.3     1  UNL1        0.1075
     28 N          64.3367   84.4501   13.1123 N.am    1  UNL1       -0.2695
     29 C          64.3042   83.5478   11.9145 C.2     1  UNL1        0.4020
     30 O          63.6940   84.0273   10.6307 O.2     1  UNL1       -0.2264
     31 H          64.7372   84.1354   13.9549 H       1  UNL1        0.1528
     32 O          64.8817   82.1662   12.0003 O.3     1  UNL1       -0.4291
     33 C          64.5488   81.2853   13.1678 C.3     1  UNL1        0.2447
     34 C          63.1173   81.0716   13.5620 C.ar    1  UNL1        0.0714
     35 C          62.2701   82.0217   14.3554 C.ar    1  UNL1        0.1053
     36 N          60.9109   81.4076   14.5158 N.ar    1  UNL1       -0.2350
     37 C          60.9183   80.0780   13.8214 C.ar    1  UNL1        0.1343
     38 S          62.2819   79.8703   13.2320 S.2     1  UNL1       -0.0652
     39 C          64.3155   86.9317   13.8813 C.3     1  UNL1        0.0485
     40 C          63.7990   87.1324   15.2751 C.ar    1  UNL1       -0.0204
     41 C          63.5767   88.5198   15.8001 C.ar    1  UNL1       -0.0042
     42 C          63.0602   88.7205   17.1940 C.ar    1  UNL1       -0.0003
     43 C          62.7661   87.5338   18.0630 C.ar    1  UNL1       -0.0000
     44 C          62.9884   86.1463   17.5380 C.ar    1  UNL1       -0.0003
     45 C          63.5048   85.9456   16.1442 C.ar    1  UNL1       -0.0042
@<TRIPOS>BOND
     1    20    21    1
     2    21    22    1
     3    21    23    1
     4    21    19    1
     5    19     2    1
     6     2     1    1
     7     1    24    1
     8    24    25    1
     9    24    27    1
    10    27    39    1
    11    39    40    1
    12    40    41   ar
    13    41    42   ar
    14    42    43   ar
    15    43    44   ar
    16    44    45   ar
    17    27    28    1
    18    28    29   am
    19    29    30    2
    20    29    32    1
    21    32    33    1
    22    33    34    1
    23    34    35   ar
    24    35    36   ar
    25    36    37   ar
    26    37    38   ar
    27     2     3   am
    28     3     4    2
    29     3     5    1
    30     5     6   ar
    31     6     7   ar
    32     7     8   ar
    33     8     9   ar
    34     9    10   ar
    35    10    14    1
    36    14    15    1
    37    15    16    1
    38    16    17    1
    39    17    18    1
    40    10    11   ar
    41    11    12   ar
    42    12    13   ar
    43    45    40   ar
    44    38    34   ar
    45    13     5   ar
    46    12     8   ar
    47    18    14    1
    48    25    26    1
    49    28    31    1
@<TRIPOS>MOLECULE
*****
 45 49 0 0 0
SMALL
GASTEIGER

@<TRIPOS>ATOM
      1 C          62.8643   87.2009   11.5051 C.3     1  UNL1        0.1245
      2 N          61.6776   87.7168   10.7463 N.am    1  UNL1       -0.2735
      3 C          61.5752   89.1764   10.4161 C.2     1  UNL1        0.2492
      4 O          60.3886   89.6923    9.6573 O.2     1  UNL1       -0.2699
      5 C          62.6595   90.1202   10.8447 C.ar    1  UNL1        0.0567
      6 C          63.0633   91.2546    9.9503 C.ar    1  UNL1        0.0063
      7 C          64.1475   92.1983   10.3789 C.ar    1  UNL1        0.0225
      8 C          64.8280   92.0077   11.7020 C.ar    1  UNL1        0.1202
      9 N          65.9218   92.7718   12.3875 N.ar    1  UNL1       -0.1946
     10 C          66.1940   92.1096   13.7055 C.ar    1  UNL1        0.2924
     11 O          65.2685   90.9363   13.8347 O.2     1  UNL1       -0.4237
     12 C          64.4242   90.8733   12.5965 C.ar    1  UNL1        0.1662
     13 C          63.3400   89.9296   12.1678 C.ar    1  UNL1        0.0437
     14 N          67.2129   92.5444   14.7170 N.pl3   1  UNL1       -0.2636
     15 C          67.5857   93.9610   15.0400 C.3     1  UNL1        0.0951
     16 C          68.6411   93.9310   16.1056 C.3     1  UNL1        0.0233
     17 C          68.9205   92.4959   16.4410 C.3     1  UNL1        0.0233
     18 C          68.0378   91.6390   15.5827 C.3     1  UNL1        0.0951
     19 C          60.5934   86.7730   10.3177 C.3     1  UNL1        0.0937
     20 C          59.0187   86.9883    8.9127 C.3     1  UNL1        0.0017
     21 C          60.4159   86.4447    8.8648 C.3     1  UNL1        0.0183
     22 C          61.8131   85.9011    8.8170 C.3     1  UNL1        0.0017
     23 C          60.2384   86.1164    7.4120 C.3     1  UNL1        0.0017
     24 C          62.7917   85.8726   12.1981 C.3     1  UNL1        0.1484
     25 O          61.7132   84.8953   11.8353 O.3     1  UNL1       -0.3810
     26 H          61.1521   85.2758   11.1415 H       1  UNL1        0.2105
     27 C          63.7977   85.5215   13.2540 C.3     1  UNL1        0.1075
     28 N          64.1504   84.0855   13.5059 N.am    1  UNL1       -0.2695
     29 C          63.1985   83.1994   14.2534 C.2     1  UNL1        0.4020
     30 O          61.8938   83.7494   14.7489 O.2     1  UNL1       -0.2264
     31 H          65.0067   83.7246   13.1807 H       1  UNL1        0.1528
     32 O          63.5512   81.7635   14.5054 O.3     1  UNL1       -0.4291
     33 C          62.7482   80.6704   13.8648 C.3     1  UNL1        0.2447
     34 C          62.8410   80.4400   12.3855 C.ar    1  UNL1        0.0714
     35 C          62.6349   79.1311   11.6824 C.ar    1  UNL1        0.1053
     36 N          62.8226   79.3601   10.2119 N.ar    1  UNL1       -0.2350
     37 C          63.1448   80.8107   10.0062 C.ar    1  UNL1        0.1343
     38 S          63.1561   81.4780   11.3496 S.2     1  UNL1       -0.0652
     39 C          64.4509   86.6065   14.0578 C.3     1  UNL1        0.0485
     40 C          63.8733   87.0099   15.3820 C.ar    1  UNL1       -0.0204
     41 C          63.5272   85.9635   16.3994 C.ar    1  UNL1       -0.0042
     42 C          62.9496   86.3670   17.7237 C.ar    1  UNL1       -0.0003
     43 C          62.7182   87.8169   18.0305 C.ar    1  UNL1       -0.0000
     44 C          63.0643   88.8634   17.0131 C.ar    1  UNL1       -0.0003
     45 C          63.6418   88.4599   15.6889 C.ar    1  UNL1       -0.0042
@<TRIPOS>BOND
     1    20    21    1
     2    21    22    1
     3    21    23    1
     4    21    19    1
     5    19     2    1
     6     2     1    1
     7     1    24    1
     8    24    25    1
     9    24    27    1
    10    27    39    1
    11    39    40    1
    12    40    41   ar
    13    41    42   ar
    14    42    43   ar
    15    43    44   ar
    16    44    45   ar
    17    27    28    1
    18    28    29   am
    19    29    30    2
    20    29    32    1
    21    32    33    1
    22    33    34    1
    23    34    35   ar
    24    35    36   ar
    25    36    37   ar
    26    37    38   ar
    27     2     3   am
    28     3     4    2
    29     3     5    1
    30     5     6   ar
    31     6     7   ar
    32     7     8   ar
    33     8     9   ar
    34     9    10   ar
    35    10    14    1
    36    14    15    1
    37    15    16    1
    38    16    17    1
    39    17    18    1
    40    10    11   ar
    41    11    12   ar
    42    12    13   ar
    43    45    40   ar
    44    38    34   ar
    45    13     5   ar
    46    12     8   ar
    47    18    14    1
    48    25    26    1
    49    28    31    1
@<TRIPOS>MOLECULE
*****
 45 49 0 0 0
SMALL
GASTEIGER

@<TRIPOS>ATOM
      1 C          64.2173   87.6685   14.1380 C.3     1  UNL1        0.1245
      2 N          63.3417   88.3363   15.1565 N.am    1  UNL1       -0.2735
      3 C          63.4740   89.8089   15.4092 C.2     1  UNL1        0.2492
      4 O          62.5984   90.4766   16.4277 O.2     1  UNL1       -0.2699
      5 C          64.4819   90.6138   14.6434 C.ar    1  UNL1        0.0567
      6 C          65.9015   90.6889   15.1217 C.ar    1  UNL1        0.0063
      7 C          66.9093   91.4938   14.3559 C.ar    1  UNL1        0.0225
      8 C          66.4974   92.2235   13.1118 C.ar    1  UNL1        0.1202
      9 N          67.2634   93.0894   12.1559 N.ar    1  UNL1       -0.1946
     10 C          66.3171   93.5493   11.0868 C.ar    1  UNL1        0.2924
     11 O          64.9663   92.9677   11.3820 O.2     1  UNL1       -0.4237
     12 C          65.0778   92.1483   12.6334 C.ar    1  UNL1        0.1662
     13 C          64.0700   91.3434   13.3992 C.ar    1  UNL1        0.0437
     14 N          66.6612   94.4353    9.9263 N.pl3   1  UNL1       -0.2636
     15 C          67.5850   94.0891    8.7963 C.3     1  UNL1        0.0951
     16 C          67.6365   95.2629    7.8637 C.3     1  UNL1        0.0233
     17 C          66.7447   96.3344    8.4174 C.3     1  UNL1        0.0233
     18 C          66.1419   95.8228    9.6922 C.3     1  UNL1        0.0951
     19 C          62.3338   87.5314   15.9223 C.3     1  UNL1        0.0937
     20 C          62.3128   85.5724   16.7360 C.3     1  UNL1        0.0017
     21 C          62.7043   86.9281   17.2448 C.3     1  UNL1        0.0183
     22 C          63.0957   88.2838   17.7536 C.3     1  UNL1        0.0017
     23 C          63.0747   86.3248   18.5672 C.3     1  UNL1        0.0017
     24 C          64.5285   86.2061   14.2597 C.3     1  UNL1        0.1484
     25 O          65.5401   85.7355   15.2623 O.3     1  UNL1       -0.3810
     26 H          65.8951   86.4979   15.7457 H       1  UNL1        0.2105
     27 C          63.8281   85.2144   13.3789 C.3     1  UNL1        0.1075
     28 N          62.5797   85.6110   12.6479 N.am    1  UNL1       -0.2695
     29 C          62.4168   85.2627   11.1980 C.2     1  UNL1        0.4020
     30 O          63.5023   84.5179   10.4791 O.2     1  UNL1       -0.2264
     31 H          61.8672   86.0998   13.1198 H       1  UNL1        0.1528
     32 O          61.1684   85.6592   10.4671 O.3     1  UNL1       -0.4291
     33 C          61.1478   86.9125    9.6432 C.3     1  UNL1        0.2447
     34 C          61.0203   88.2486   10.3132 C.ar    1  UNL1        0.0714
     35 C          59.9027   88.6789   11.2165 C.ar    1  UNL1        0.1053
     36 N          60.1797   90.0850   11.6591 N.ar    1  UNL1       -0.2350
     37 C          61.4686   90.5238   11.0294 C.ar    1  UNL1        0.1343
     38 S          61.9881   89.3888   10.1976 S.2     1  UNL1       -0.0652
     39 C          64.3761   83.8262   13.2289 C.3     1  UNL1        0.0485
     40 C          63.4574   82.6437   13.3169 C.ar    1  UNL1       -0.0204
     41 C          62.3814   82.6060   14.3613 C.ar    1  UNL1       -0.0042
     42 C          61.4627   81.4235   14.4492 C.ar    1  UNL1       -0.0003
     43 C          61.6200   80.2788   13.4928 C.ar    1  UNL1       -0.0000
     44 C          62.6960   80.3165   12.4483 C.ar    1  UNL1       -0.0003
     45 C          63.6146   81.4990   12.3604 C.ar    1  UNL1       -0.0042
@<TRIPOS>BOND
     1    20    21    1
     2    21    22    1
     3    21    23    1
     4    21    19    1
     5    19     2    1
     6     2     1    1
     7     1    24    1
     8    24    25    1
     9    24    27    1
    10    27    39    1
    11    39    40    1
    12    40    41   ar
    13    41    42   ar
    14    42    43   ar
    15    43    44   ar
    16    44    45   ar
    17    27    28    1
    18    28    29   am
    19    29    30    2
    20    29    32    1
    21    32    33    1
    22    33    34    1
    23    34    35   ar
    24    35    36   ar
    25    36    37   ar
    26    37    38   ar
    27     2     3   am
    28     3     4    2
    29     3     5    1
    30     5     6   ar
    31     6     7   ar
    32     7     8   ar
    33     8     9   ar
    34     9    10   ar
    35    10    14    1
    36    14    15    1
    37    15    16    1
    38    16    17    1
    39    17    18    1
    40    10    11   ar
    41    11    12   ar
    42    12    13   ar
    43    45    40   ar
    44    38    34   ar
    45    13     5   ar
    46    12     8   ar
    47    18    14    1
    48    25    26    1
    49    28    31    1
@<TRIPOS>MOLECULE
*****
 45 49 0 0 0
SMALL
GASTEIGER

@<TRIPOS>ATOM
      1 C          64.9436   90.5705   13.5880 C.3     1  UNL1        0.1245
      2 N          64.8490   91.3796   14.8475 N.am    1  UNL1       -0.2735
      3 C          64.3185   90.7535   16.1031 C.2     1  UNL1        0.2492
      4 O          64.2238   91.5627   17.3626 O.2     1  UNL1       -0.2699
      5 C          63.8826   89.3182   16.0992 C.ar    1  UNL1        0.0567
      6 C          63.0256   88.7917   17.2120 C.ar    1  UNL1        0.0063
      7 C          62.5898   87.3564   17.2081 C.ar    1  UNL1        0.0225
      8 C          63.0109   86.4477   16.0915 C.ar    1  UNL1        0.1202
      9 N          62.7380   84.9979   15.8201 N.ar    1  UNL1       -0.1946
     10 C          63.4263   84.6284   14.5396 C.ar    1  UNL1        0.2924
     11 O          64.1247   85.8499   14.0196 O.2     1  UNL1       -0.4237
     12 C          63.8679   86.9743   14.9787 C.ar    1  UNL1        0.1662
     13 C          64.3037   88.4095   14.9826 C.ar    1  UNL1        0.0437
     14 N          63.4179   83.2751   13.8926 N.pl3   1  UNL1       -0.2636
     15 C          62.5793   82.1036   14.3101 C.3     1  UNL1        0.0951
     16 C          62.8897   80.9602   13.3900 C.3     1  UNL1        0.0233
     17 C          63.9200   81.4251   12.4041 C.3     1  UNL1        0.0233
     18 C          64.2465   82.8559   12.7147 C.3     1  UNL1        0.0951
     19 C          65.2848   92.8149   14.8513 C.3     1  UNL1        0.0937
     20 C          66.7990   92.4131   16.2817 C.3     1  UNL1        0.0017
     21 C          66.7397   93.1566   14.9802 C.3     1  UNL1        0.0183
     22 C          66.6804   93.9000   13.6788 C.3     1  UNL1        0.0017
     23 C          68.1946   93.4982   15.1091 C.3     1  UNL1        0.0017
     24 C          63.7711   90.4945   12.6555 C.3     1  UNL1        0.1484
     25 O          62.5772   89.6619   13.0181 O.3     1  UNL1       -0.3810
     26 H          62.7250   89.2429   13.8803 H       1  UNL1        0.2105
     27 C          63.7925   91.2510   11.3605 C.3     1  UNL1        0.1075
     28 N          63.2142   90.6338   10.1216 N.am    1  UNL1       -0.2695
     29 C          61.7410   90.3650   10.0351 C.2     1  UNL1        0.4020
     30 O          60.8462   90.7134   11.1875 O.2     1  UNL1       -0.2264
     31 H          63.8016   90.4051    9.3653 H       1  UNL1        0.1528
     32 O          61.1627   89.7478    8.7964 O.3     1  UNL1       -0.4291
     33 C          60.5135   88.3973    8.8642 C.3     1  UNL1        0.2447
     34 C          61.1051   87.3232    9.7282 C.ar    1  UNL1        0.0714
     35 C          60.8310   87.1155   11.1883 C.ar    1  UNL1        0.1053
     36 N          61.6311   85.9323   11.6464 N.ar    1  UNL1       -0.2350
     37 C          62.3998   85.4089   10.4694 C.ar    1  UNL1        0.1343
     38 S          62.0747   86.2685    9.2840 S.2     1  UNL1       -0.0652
     39 C          64.3922   92.6247   11.3042 C.3     1  UNL1        0.0485
     40 C          65.7066   92.8416   10.6149 C.ar    1  UNL1       -0.0204
     41 C          66.7677   91.7828   10.6729 C.ar    1  UNL1       -0.0042
     42 C          68.0821   91.9997    9.9835 C.ar    1  UNL1       -0.0003
     43 C          68.3355   93.2753    9.2361 C.ar    1  UNL1       -0.0000
     44 C          67.2745   94.3340    9.1780 C.ar    1  UNL1       -0.0003
     45 C          65.9601   94.1172    9.8674 C.ar    1  UNL1       -0.0042
@<TRIPOS>BOND
     1    20    21    1
     2    21    22    1
     3    21    23    1
     4    21    19    1
     5    19     2    1
     6     2     1    1
     7     1    24    1
     8    24    25    1
     9    24    27    1
    10    27    39    1
    11    39    40    1
    12    40    41   ar
    13    41    42   ar
    14    42    43   ar
    15    43    44   ar
    16    44    45   ar
    17    27    28    1
    18    28    29   am
    19    29    30    2
    20    29    32    1
    21    32    33    1
    22    33    34    1
    23    34    35   ar
    24    35    36   ar
    25    36    37   ar
    26    37    38   ar
    27     2     3   am
    28     3     4    2
    29     3     5    1
    30     5     6   ar
    31     6     7   ar
    32     7     8   ar
    33     8     9   ar
    34     9    10   ar
    35    10    14    1
    36    14    15    1
    37    15    16    1
    38    16    17    1
    39    17    18    1
    40    10    11   ar
    41    11    12   ar
    42    12    13   ar
    43    45    40   ar
    44    38    34   ar
    45    13     5   ar
    46    12     8   ar
    47    18    14    1
    48    25    26    1
    49    28    31    1
@<TRIPOS>MOLECULE
*****
 45 49 0 0 0
SMALL
GASTEIGER

@<TRIPOS>ATOM
      1 C          65.9221   90.8360   14.0240 C.3     1  UNL1        0.1245
      2 N          65.2781   91.6841   15.0803 N.am    1  UNL1       -0.2735
      3 C          64.2700   91.0824   16.0138 C.2     1  UNL1        0.2492
      4 O          63.6260   91.9305   17.0702 O.2     1  UNL1       -0.2699
      5 C          63.9058   89.6324   15.8910 C.ar    1  UNL1        0.0567
      6 C          63.2475   88.9247   17.0380 C.ar    1  UNL1        0.0063
      7 C          62.8834   87.4748   16.9152 C.ar    1  UNL1        0.0225
      8 C          63.1775   86.7326   15.6453 C.ar    1  UNL1        0.1202
      9 N          62.9356   85.3101   15.2350 N.ar    1  UNL1       -0.1946
     10 C          63.4445   85.1388   13.8344 C.ar    1  UNL1        0.2924
     11 O          64.0008   86.4553   13.3791 O.2     1  UNL1       -0.4237
     12 C          63.8358   87.4403   14.4982 C.ar    1  UNL1        0.1662
     13 C          64.2000   88.8902   14.6211 C.ar    1  UNL1        0.0437
     14 N          63.4041   83.8732   13.0302 N.pl3   1  UNL1       -0.2636
     15 C          63.3205   83.7807   11.5354 C.3     1  UNL1        0.0951
     16 C          63.3050   82.3281   11.1611 C.3     1  UNL1        0.0233
     17 C          63.3788   81.5231   12.4246 C.3     1  UNL1        0.0233
     18 C          63.4401   82.4780   13.5798 C.3     1  UNL1        0.0951
     19 C          65.6423   93.1341   15.2032 C.3     1  UNL1        0.0937
     20 C          67.1960   92.6213   16.5534 C.3     1  UNL1        0.0017
     21 C          67.0780   93.5353   15.3698 C.3     1  UNL1        0.0183
     22 C          66.9601   94.4492   14.1863 C.3     1  UNL1        0.0017
     23 C          68.5138   93.9364   15.5365 C.3     1  UNL1        0.0017
     24 C          66.3395   91.4499   12.7205 C.3     1  UNL1        0.1484
     25 O          67.7942   91.6652   12.4246 O.3     1  UNL1       -0.3810
     26 H          68.3260   91.3552   13.1743 H       1  UNL1        0.2105
     27 C          65.3022   91.8486   11.7130 C.3     1  UNL1        0.1075
     28 N          63.8454   91.7449   12.0553 N.am    1  UNL1       -0.2695
     29 C          62.9438   90.8670   11.2388 C.2     1  UNL1        0.4020
     30 O          63.4991   90.0930   10.0801 O.2     1  UNL1       -0.2264
     31 H          63.4810   92.2529   12.8158 H       1  UNL1        0.1528
     32 O          61.4871   90.7633   11.5810 O.3     1  UNL1       -0.4291
     33 C          60.5133   90.2434   10.5655 C.3     1  UNL1        0.2447
     34 C          60.5540   88.8005   10.1574 C.ar    1  UNL1        0.0714
     35 C          61.0231   87.6568   11.0071 C.ar    1  UNL1        0.1053
     36 N          60.8918   86.3974   10.2029 N.ar    1  UNL1       -0.2350
     37 C          60.3415   86.7628    8.8561 C.ar    1  UNL1        0.1343
     38 S          60.1327   88.2479    8.8280 S.2     1  UNL1       -0.0652
     39 C          65.7216   92.3509   10.3633 C.3     1  UNL1        0.0485
     40 C          66.1906   93.7666   10.2025 C.ar    1  UNL1       -0.0204
     41 C          67.1807   94.1114    9.1297 C.ar    1  UNL1       -0.0042
     42 C          67.6497   95.5271    8.9689 C.ar    1  UNL1       -0.0003
     43 C          67.1287   96.5979    9.8809 C.ar    1  UNL1       -0.0000
     44 C          66.1387   96.2532   10.9537 C.ar    1  UNL1       -0.0003
     45 C          65.6696   94.8375   11.1146 C.ar    1  UNL1       -0.0042
@<TRIPOS>BOND
     1    20    21    1
     2    21    22    1
     3    21    23    1
     4    21    19    1
     5    19     2    1
     6     2     1    1
     7     1    24    1
     8    24    25    1
     9    24    27    1
    10    27    39    1
    11    39    40    1
    12    40    41   ar
    13    41    42   ar
    14    42    43   ar
    15    43    44   ar
    16    44    45   ar
    17    27    28    1
    18    28    29   am
    19    29    30    2
    20    29    32    1
    21    32    33    1
    22    33    34    1
    23    34    35   ar
    24    35    36   ar
    25    36    37   ar
    26    37    38   ar
    27     2     3   am
    28     3     4    2
    29     3     5    1
    30     5     6   ar
    31     6     7   ar
    32     7     8   ar
    33     8     9   ar
    34     9    10   ar
    35    10    14    1
    36    14    15    1
    37    15    16    1
    38    16    17    1
    39    17    18    1
    40    10    11   ar
    41    11    12   ar
    42    12    13   ar
    43    45    40   ar
    44    38    34   ar
    45    13     5   ar
    46    12     8   ar
    47    18    14    1
    48    25    26    1
    49    28    31    1
