@<TRIPOS>MOLECULE
*****
 33 35 0 0 0
SMALL
GASTEIGER

@<TRIPOS>ATOM
      1 C          60.7858   89.2504   11.3146 C.2     1  UNL1        0.2271
      2 O          60.3087   88.6135   12.5862 O.2     1  UNL1       -0.2748
      3 N          62.0458   90.0642   11.3103 N.am    1  UNL1       -0.2760
      4 C          62.8287   90.2412   12.5774 C.3     1  UNL1        0.1149
      5 C          64.0887   91.0551   12.5730 C.3     1  UNL1        0.1152
      6 N          64.5658   91.6919   11.3015 N.am    1  UNL1       -0.2726
      7 C          65.8259   92.5058   11.2971 C.2     1  UNL1        0.2491
      8 O          66.3030   93.1426   10.0256 O.2     1  UNL1       -0.2699
      9 C          63.7829   91.5149   10.0343 C.3     1  UNL1        0.1152
     10 C          62.5229   90.7011   10.0387 C.3     1  UNL1        0.1149
     11 C          66.6088   92.6828   12.5643 C.ar    1  UNL1        0.0538
     12 C          67.7337   91.7448   12.8881 C.ar    1  UNL1        0.0076
     13 C          68.5166   91.9219   14.1553 C.ar    1  UNL1        0.0368
     14 C          68.1746   93.0368   15.0986 C.ar    1  UNL1        0.1337
     15 O          68.9574   93.2138   16.3658 O.3     1  UNL1       -0.5055
     16 C          67.0496   93.9748   14.7748 C.ar    1  UNL1        0.0368
     17 C          66.2668   93.7978   13.5076 C.ar    1  UNL1        0.0076
     18 H          69.6601   92.6279   16.5681 H       1  UNL1        0.2922
     19 C          60.0029   89.0734   10.0475 C.3     1  UNL1        0.1010
     20 N          59.0452   87.1268    8.6179 N.3     1  UNL1       -0.3215
     21 C          60.2206   87.8586    9.1948 C.3     1  UNL1        0.0644
     22 H          58.1826   87.5893    8.9048 H       1  UNL1        0.1188
     23 H          59.0441   86.1647    8.9566 H       1  UNL1        0.1188
     24 C          61.6137   87.3757    8.9191 C.3     1  UNL1        0.0447
     25 C          62.1580   86.1919    9.6622 C.ar    1  UNL1        0.0090
     26 C          61.9065   86.0500   11.1342 C.ar    1  UNL1        0.0300
     27 C          62.4507   84.8662   11.8774 C.ar    1  UNL1        0.1672
     28 F          62.1992   84.7243   13.3493 F       1  UNL1       -0.2018
     29 C          63.2464   83.8242   11.1486 C.ar    1  UNL1        0.1696
     30 F          63.7907   82.6404   11.8918 F       1  UNL1       -0.2017
     31 C          63.4980   83.9661    9.6767 C.ar    1  UNL1        0.0612
     32 C          62.9537   85.1499    8.9335 C.ar    1  UNL1        0.1386
     33 F          63.2052   85.2918    7.4616 F       1  UNL1       -0.2044
@<TRIPOS>BOND
     1    21    20    1
     2    21    19    1
     3    19     1    1
     4     1     2    2
     5     1     3   am
     6     3     4    1
     7     4     5    1
     8     5     6    1
     9     6     7   am
    10     7     8    2
    11     7    11    1
    12    11    12   ar
    13    12    13   ar
    14    13    14   ar
    15    14    15    1
    16    14    16   ar
    17    16    17   ar
    18     6     9    1
    19     9    10    1
    20    21    24    1
    21    24    25    1
    22    25    26   ar
    23    26    27   ar
    24    27    28    1
    25    27    29   ar
    26    29    30    1
    27    29    31   ar
    28    31    32   ar
    29    32    33    1
    30    10     3    1
    31    32    25   ar
    32    17    11   ar
    33    20    22    1
    34    20    23    1
    35    15    18    1
@<TRIPOS>MOLECULE
*****
 33 35 0 0 0
SMALL
GASTEIGER

@<TRIPOS>ATOM
      1 C          61.3586   88.8368   10.4075 C.2     1  UNL1        0.2271
      2 O          60.7426   89.0579    9.0578 O.2     1  UNL1       -0.2748
      3 N          62.4681   89.7284   10.8807 N.am    1  UNL1       -0.2760
      4 C          62.9617   90.8412   10.0043 C.3     1  UNL1        0.1149
      5 C          64.0712   91.7328   10.4776 C.3     1  UNL1        0.1152
      6 N          64.6871   91.5116   11.8273 N.am    1  UNL1       -0.2726
      7 C          65.7967   92.4033   12.3006 C.2     1  UNL1        0.2491
      8 O          66.4126   92.1821   13.6503 O.2     1  UNL1       -0.2699
      9 C          64.1936   90.3989   12.7037 C.3     1  UNL1        0.1152
     10 C          63.0841   89.5073   12.2304 C.3     1  UNL1        0.1149
     11 C          66.2903   93.5160   11.4241 C.ar    1  UNL1        0.0538
     12 C          66.0109   94.9425   11.7943 C.ar    1  UNL1        0.0076
     13 C          66.5045   96.0553   10.9178 C.ar    1  UNL1        0.0368
     14 C          67.2775   95.7415    9.6712 C.ar    1  UNL1        0.1337
     15 O          67.7710   96.8542    8.7948 O.3     1  UNL1       -0.5055
     16 C          67.5569   94.3150    9.3011 C.ar    1  UNL1        0.0368
     17 C          67.0633   93.2022   10.1775 C.ar    1  UNL1        0.0076
     18 H          67.5965   97.7453    9.0260 H       1  UNL1        0.2922
     19 C          60.8650   87.7241   11.2839 C.3     1  UNL1        0.1010
     20 N          61.2969   85.5145    9.9871 N.3     1  UNL1       -0.3215
     21 C          61.5009   86.3678   11.2038 C.3     1  UNL1        0.0644
     22 H          60.7044   86.0093    9.3203 H       1  UNL1        0.1188
     23 H          60.8478   84.6394   10.2570 H       1  UNL1        0.1188
     24 C          62.3408   85.8650   12.3403 C.3     1  UNL1        0.0447
     25 C          62.4713   84.3902   12.5811 C.ar    1  UNL1        0.0090
     26 C          62.7397   83.4635   11.4325 C.ar    1  UNL1        0.0300
     27 C          62.8702   81.9888   11.6733 C.ar    1  UNL1        0.1672
     28 F          63.1387   81.0622   10.5247 F       1  UNL1       -0.2018
     29 C          62.7323   81.4406   13.0627 C.ar    1  UNL1        0.1696
     30 F          62.8628   79.9659   13.3036 F       1  UNL1       -0.2017
     31 C          62.4638   82.3672   14.2113 C.ar    1  UNL1        0.0612
     32 C          62.3333   83.8421   13.9705 C.ar    1  UNL1        0.1386
     33 F          62.0649   84.7687   15.1191 F       1  UNL1       -0.2044
@<TRIPOS>BOND
     1    21    20    1
     2    21    19    1
     3    19     1    1
     4     1     2    2
     5     1     3   am
     6     3     4    1
     7     4     5    1
     8     5     6    1
     9     6     7   am
    10     7     8    2
    11     7    11    1
    12    11    12   ar
    13    12    13   ar
    14    13    14   ar
    15    14    15    1
    16    14    16   ar
    17    16    17   ar
    18     6     9    1
    19     9    10    1
    20    21    24    1
    21    24    25    1
    22    25    26   ar
    23    26    27   ar
    24    27    28    1
    25    27    29   ar
    26    29    30    1
    27    29    31   ar
    28    31    32   ar
    29    32    33    1
    30    10     3    1
    31    32    25   ar
    32    17    11   ar
    33    20    22    1
    34    20    23    1
    35    15    18    1
@<TRIPOS>MOLECULE
*****
 33 35 0 0 0
SMALL
GASTEIGER

@<TRIPOS>ATOM
      1 C          63.4005   90.3415   12.1294 C.2     1  UNL1        0.2271
      2 O          62.8694   90.3740   10.7269 O.2     1  UNL1       -0.2748
      3 N          63.5577   89.0307   12.8416 N.am    1  UNL1       -0.2760
      4 C          63.1839   87.7525   12.1514 C.3     1  UNL1        0.1149
      5 C          63.3411   86.4418   12.8636 C.3     1  UNL1        0.1152
      6 N          63.8722   86.4093   14.2660 N.am    1  UNL1       -0.2726
      7 C          64.0294   85.0985   14.9783 C.2     1  UNL1        0.2491
      8 O          64.5605   85.0660   16.3807 O.2     1  UNL1       -0.2699
      9 C          64.2460   87.6875   14.9563 C.3     1  UNL1        0.1152
     10 C          64.0888   88.9982   14.2441 C.3     1  UNL1        0.1149
     11 C          63.6555   83.8203   14.2880 C.ar    1  UNL1        0.0538
     12 C          62.4572   83.0432   14.7463 C.ar    1  UNL1        0.0076
     13 C          62.0833   81.7650   14.0560 C.ar    1  UNL1        0.0368
     14 C          62.9078   81.2640   12.9074 C.ar    1  UNL1        0.1337
     15 O          62.5340   79.9858   12.2172 O.3     1  UNL1       -0.5055
     16 C          64.1061   82.0411   12.4491 C.ar    1  UNL1        0.0368
     17 C          64.4800   83.3193   13.1394 C.ar    1  UNL1        0.0076
     18 H          61.7854   79.5003   12.5035 H       1  UNL1        0.2922
     19 C          63.7744   91.6197   12.8196 C.3     1  UNL1        0.1010
     20 N          65.7646   92.6543   14.1306 N.3     1  UNL1       -0.3215
     21 C          65.2102   92.0503   12.8745 C.3     1  UNL1        0.0644
     22 H          65.0325   92.6961   14.8396 H       1  UNL1        0.1188
     23 H          66.1021   93.5967   13.9344 H       1  UNL1        0.1188
     24 C          66.0916   91.8768   11.6733 C.3     1  UNL1        0.0447
     25 C          66.4891   93.0702   10.8561 C.ar    1  UNL1        0.0090
     26 C          65.7498   94.3660   11.0121 C.ar    1  UNL1        0.0300
     27 C          66.1473   95.5594   10.1950 C.ar    1  UNL1        0.1672
     28 F          65.4079   96.8551   10.3510 F       1  UNL1       -0.2018
     29 C          67.2842   95.4570    9.2218 C.ar    1  UNL1        0.1696
     30 F          67.6817   96.6504    8.4047 F       1  UNL1       -0.2017
     31 C          68.0235   94.1613    9.0658 C.ar    1  UNL1        0.0612
     32 C          67.6260   92.9678    9.8829 C.ar    1  UNL1        0.1386
     33 F          68.3654   91.6721    9.7269 F       1  UNL1       -0.2044
@<TRIPOS>BOND
     1    21    20    1
     2    21    19    1
     3    19     1    1
     4     1     2    2
     5     1     3   am
     6     3     4    1
     7     4     5    1
     8     5     6    1
     9     6     7   am
    10     7     8    2
    11     7    11    1
    12    11    12   ar
    13    12    13   ar
    14    13    14   ar
    15    14    15    1
    16    14    16   ar
    17    16    17   ar
    18     6     9    1
    19     9    10    1
    20    21    24    1
    21    24    25    1
    22    25    26   ar
    23    26    27   ar
    24    27    28    1
    25    27    29   ar
    26    29    30    1
    27    29    31   ar
    28    31    32   ar
    29    32    33    1
    30    10     3    1
    31    32    25   ar
    32    17    11   ar
    33    20    22    1
    34    20    23    1
    35    15    18    1
@<TRIPOS>MOLECULE
*****
 33 35 0 0 0
SMALL
GASTEIGER

@<TRIPOS>ATOM
      1 C          62.9032   89.4355   11.3322 C.2     1  UNL1        0.2271
      2 O          62.1572   89.2933   10.0386 O.2     1  UNL1       -0.2748
      3 N          63.1646   88.2286   12.1837 N.am    1  UNL1       -0.2760
      4 C          62.6802   86.8796   11.7417 C.3     1  UNL1        0.1149
      5 C          62.9416   85.6728   12.5933 C.3     1  UNL1        0.1152
      6 N          63.6875   85.8150   13.8869 N.am    1  UNL1       -0.2726
      7 C          63.9490   84.6081   14.7384 C.2     1  UNL1        0.2491
      8 O          64.6949   84.7503   16.0320 O.2     1  UNL1       -0.2699
      9 C          64.1720   87.1640   14.3289 C.3     1  UNL1        0.1152
     10 C          63.9105   88.3708   13.4773 C.3     1  UNL1        0.1149
     11 C          63.4645   83.2591   14.2964 C.ar    1  UNL1        0.0538
     12 C          62.1378   82.7457   14.7721 C.ar    1  UNL1        0.0076
     13 C          61.6534   81.3966   14.3300 C.ar    1  UNL1        0.0368
     14 C          62.4956   80.5610   13.4123 C.ar    1  UNL1        0.1337
     15 O          62.0112   79.2120   12.9702 O.3     1  UNL1       -0.5055
     16 C          63.8223   81.0744   12.9366 C.ar    1  UNL1        0.0368
     17 C          64.3068   82.4234   13.3786 C.ar    1  UNL1        0.0076
     18 H          61.1824   78.8913   13.2674 H       1  UNL1        0.2922
     19 C          63.3876   90.7845   11.7742 C.3     1  UNL1        0.1010
     20 N          63.2071   91.9201    9.4444 N.3     1  UNL1       -0.3215
     21 C          63.9052   91.7640   10.7628 C.3     1  UNL1        0.0644
     22 H          62.4073   91.2882    9.4062 H       1  UNL1        0.1188
     23 H          63.8541   91.6957    8.6884 H       1  UNL1        0.1188
     24 C          65.1209   92.5873   11.0699 C.3     1  UNL1        0.0447
     25 C          65.8887   92.3475   12.3359 C.ar    1  UNL1        0.0090
     26 C          65.1838   92.3859   13.6595 C.ar    1  UNL1        0.0300
     27 C          65.9517   92.1462   14.9255 C.ar    1  UNL1        0.1672
     28 F          65.2467   92.1845   16.2489 F       1  UNL1       -0.2018
     29 C          67.4245   91.8680   14.8680 C.ar    1  UNL1        0.1696
     30 F          68.1924   91.6283   16.1341 F       1  UNL1       -0.2017
     31 C          68.1295   91.8296   13.5446 C.ar    1  UNL1        0.0612
     32 C          67.3616   92.0694   12.2785 C.ar    1  UNL1        0.1386
     33 F          68.0666   92.0310   10.9551 F       1  UNL1       -0.2044
@<TRIPOS>BOND
     1    21    20    1
     2    21    19    1
     3    19     1    1
     4     1     2    2
     5     1     3   am
     6     3     4    1
     7     4     5    1
     8     5     6    1
     9     6     7   am
    10     7     8    2
    11     7    11    1
    12    11    12   ar
    13    12    13   ar
    14    13    14   ar
    15    14    15    1
    16    14    16   ar
    17    16    17   ar
    18     6     9    1
    19     9    10    1
    20    21    24    1
    21    24    25    1
    22    25    26   ar
    23    26    27   ar
    24    27    28    1
    25    27    29   ar
    26    29    30    1
    27    29    31   ar
    28    31    32   ar
    29    32    33    1
    30    10     3    1
    31    32    25   ar
    32    17    11   ar
    33    20    22    1
    34    20    23    1
    35    15    18    1
@<TRIPOS>MOLECULE
*****
 33 35 0 0 0
SMALL
GASTEIGER

@<TRIPOS>ATOM
      1 C          63.7710   88.5418   13.5694 C.2     1  UNL1        0.2271
      2 O          62.9931   87.9553   12.4288 O.2     1  UNL1       -0.2748
      3 N          64.4418   89.8743   13.4131 N.am    1  UNL1       -0.2760
      4 C          64.3347   90.6204   12.1162 C.3     1  UNL1        0.1149
      5 C          65.0055   91.9528   11.9599 C.3     1  UNL1        0.1152
      6 N          65.7834   92.5393   13.1005 N.am    1  UNL1       -0.2726
      7 C          66.4542   93.8719   12.9442 C.2     1  UNL1        0.2491
      8 O          67.2321   94.4583   14.0848 O.2     1  UNL1       -0.2699
      9 C          65.8905   91.7933   14.3974 C.3     1  UNL1        0.1152
     10 C          65.2197   90.4608   14.5537 C.3     1  UNL1        0.1149
     11 C          66.3471   94.6179   11.6473 C.ar    1  UNL1        0.0538
     12 C          65.7289   95.9842   11.6169 C.ar    1  UNL1        0.0076
     13 C          65.6218   96.7303   10.3199 C.ar    1  UNL1        0.0368
     14 C          66.1329   96.1099    9.0535 C.ar    1  UNL1        0.1337
     15 O          66.0258   96.8560    7.7566 O.3     1  UNL1       -0.5055
     16 C          66.7511   94.7436    9.0839 C.ar    1  UNL1        0.0368
     17 C          66.8582   93.9976   10.3808 C.ar    1  UNL1        0.0076
     18 H          65.6396   97.7095    7.7376 H       1  UNL1        0.2922
     19 C          63.8781   87.7957   14.8663 C.3     1  UNL1        0.1010
     20 N          65.6139   85.8640   14.9386 N.3     1  UNL1       -0.3215
     21 C          64.1896   86.3284   14.8640 C.3     1  UNL1        0.0644
     22 H          66.2333   86.6730   14.9848 H       1  UNL1        0.1188
     23 H          65.8357   85.3129   14.1094 H       1  UNL1        0.1188
     24 C          63.0768   85.3256   14.7870 C.3     1  UNL1        0.0447
     25 C          63.0737   84.2905   13.7014 C.ar    1  UNL1        0.0090
     26 C          63.4610   84.6696   12.3027 C.ar    1  UNL1        0.0300
     27 C          63.4579   83.6345   11.2170 C.ar    1  UNL1        0.1672
     28 F          63.8451   84.0136    9.8184 F       1  UNL1       -0.2018
     29 C          63.0676   82.2205   11.5300 C.ar    1  UNL1        0.1696
     30 F          63.0645   81.1854   10.4444 F       1  UNL1       -0.2017
     31 C          62.6803   81.8414   12.9287 C.ar    1  UNL1        0.0612
     32 C          62.6834   82.8764   14.0144 C.ar    1  UNL1        0.1386
     33 F          62.2961   82.4974   15.4131 F       1  UNL1       -0.2044
@<TRIPOS>BOND
     1    21    20    1
     2    21    19    1
     3    19     1    1
     4     1     2    2
     5     1     3   am
     6     3     4    1
     7     4     5    1
     8     5     6    1
     9     6     7   am
    10     7     8    2
    11     7    11    1
    12    11    12   ar
    13    12    13   ar
    14    13    14   ar
    15    14    15    1
    16    14    16   ar
    17    16    17   ar
    18     6     9    1
    19     9    10    1
    20    21    24    1
    21    24    25    1
    22    25    26   ar
    23    26    27   ar
    24    27    28    1
    25    27    29   ar
    26    29    30    1
    27    29    31   ar
    28    31    32   ar
    29    32    33    1
    30    10     3    1
    31    32    25   ar
    32    17    11   ar
    33    20    22    1
    34    20    23    1
    35    15    18    1
@<TRIPOS>MOLECULE
*****
 33 35 0 0 0
SMALL
GASTEIGER

@<TRIPOS>ATOM
      1 C          61.4142   89.1240   10.3593 C.2     1  UNL1        0.2271
      2 O          60.8344   89.2175    8.9790 O.2     1  UNL1       -0.2748
      3 N          62.5281   90.0414   10.7686 N.am    1  UNL1       -0.2760
      4 C          63.0622   91.0523    9.7976 C.3     1  UNL1        0.1149
      5 C          64.1761   91.9697   10.2069 C.3     1  UNL1        0.1152
      6 N          64.7559   91.8762   11.5872 N.am    1  UNL1       -0.2726
      7 C          65.8698   92.7937   11.9965 C.2     1  UNL1        0.2491
      8 O          66.4496   92.7002   13.3767 O.2     1  UNL1       -0.2699
      9 C          64.2218   90.8653   12.5581 C.3     1  UNL1        0.1152
     10 C          63.1079   89.9479   12.1488 C.3     1  UNL1        0.1149
     11 C          66.4039   93.8046   11.0255 C.ar    1  UNL1        0.0538
     12 C          67.2067   93.3553    9.8407 C.ar    1  UNL1        0.0076
     13 C          67.7408   94.3663    8.8697 C.ar    1  UNL1        0.0368
     14 C          67.4722   95.8265    9.0836 C.ar    1  UNL1        0.1337
     15 O          68.0063   96.8373    8.1126 O.3     1  UNL1       -0.5055
     16 C          66.6695   96.2757   10.2684 C.ar    1  UNL1        0.0368
     17 C          66.1354   95.2648   11.2394 C.ar    1  UNL1        0.0076
     18 H          68.5077   96.5567    7.3725 H       1  UNL1        0.2922
     19 C          60.8801   88.1131   11.3302 C.3     1  UNL1        0.1010
     20 N          62.7890   87.1756   12.8226 N.3     1  UNL1       -0.3215
     21 C          61.7419   86.9665   11.7692 C.3     1  UNL1        0.0644
     22 H          62.7759   88.1493   13.1264 H       1  UNL1        0.1188
     23 H          63.7070   86.9515   12.4388 H       1  UNL1        0.1188
     24 C          61.5565   85.6107   11.1547 C.3     1  UNL1        0.0447
     25 C          62.5008   84.4967   11.4971 C.ar    1  UNL1        0.0090
     26 C          62.5910   83.9970   12.9086 C.ar    1  UNL1        0.0300
     27 C          63.5352   82.8830   13.2509 C.ar    1  UNL1        0.1672
     28 F          63.6254   82.3834   14.6623 F       1  UNL1       -0.2018
     29 C          64.3894   82.2686   12.1818 C.ar    1  UNL1        0.1696
     30 F          65.3337   81.1546   12.5242 F       1  UNL1       -0.2017
     31 C          64.2993   82.7683   10.7704 C.ar    1  UNL1        0.0612
     32 C          63.3550   83.8824   10.4280 C.ar    1  UNL1        0.1386
     33 F          63.2649   84.3820    9.0166 F       1  UNL1       -0.2044
@<TRIPOS>BOND
     1    21    20    1
     2    21    19    1
     3    19     1    1
     4     1     2    2
     5     1     3   am
     6     3     4    1
     7     4     5    1
     8     5     6    1
     9     6     7   am
    10     7     8    2
    11     7    11    1
    12    11    12   ar
    13    12    13   ar
    14    13    14   ar
    15    14    15    1
    16    14    16   ar
    17    16    17   ar
    18     6     9    1
    19     9    10    1
    20    21    24    1
    21    24    25    1
    22    25    26   ar
    23    26    27   ar
    24    27    28    1
    25    27    29   ar
    26    29    30    1
    27    29    31   ar
    28    31    32   ar
    29    32    33    1
    30    10     3    1
    31    32    25   ar
    32    17    11   ar
    33    20    22    1
    34    20    23    1
    35    15    18    1
@<TRIPOS>MOLECULE
*****
 33 35 0 0 0
SMALL
GASTEIGER

@<TRIPOS>ATOM
      1 C          61.2745   88.9337    9.7633 C.2     1  UNL1        0.2271
      2 O          60.2761   88.4780    8.7408 O.2     1  UNL1       -0.2748
      3 N          61.8731   87.9451   10.7196 N.am    1  UNL1       -0.2760
      4 C          61.4733   86.5009   10.6534 C.3     1  UNL1        0.1149
      5 C          62.0719   85.5124   11.6096 C.3     1  UNL1        0.1152
      6 N          63.0703   85.9680   12.6321 N.am    1  UNL1       -0.2726
      7 C          63.6689   84.9794   13.5884 C.2     1  UNL1        0.2491
      8 O          64.6674   85.4350   14.6109 O.2     1  UNL1       -0.2699
      9 C          63.4702   87.4122   12.6983 C.3     1  UNL1        0.1152
     10 C          62.8716   88.4007   11.7421 C.3     1  UNL1        0.1149
     11 C          63.2691   83.5352   13.5221 C.ar    1  UNL1        0.0538
     12 C          63.9428   82.6143   12.5484 C.ar    1  UNL1        0.0076
     13 C          63.5429   81.1701   12.4822 C.ar    1  UNL1        0.0368
     14 C          62.4693   80.6468   13.3897 C.ar    1  UNL1        0.1337
     15 O          62.0694   79.2026   13.3235 O.3     1  UNL1       -0.5055
     16 C          61.7956   81.5677   14.3634 C.ar    1  UNL1        0.0368
     17 C          62.1954   83.0118   14.4296 C.ar    1  UNL1        0.0076
     18 H          62.4903   78.6274   12.7152 H       1  UNL1        0.2922
     19 C          61.6744   90.3778    9.8296 C.3     1  UNL1        0.1010
     20 N          62.0290   90.8994   12.3500 N.3     1  UNL1       -0.3215
     21 C          62.5527   90.8625   10.9448 C.3     1  UNL1        0.0644
     22 H          61.0663   90.5626   12.3630 H       1  UNL1        0.1188
     23 H          62.0588   91.8574   12.6989 H       1  UNL1        0.1188
     24 C          63.9546   91.3103   10.6550 C.3     1  UNL1        0.0447
     25 C          64.7692   91.9677   11.7293 C.ar    1  UNL1        0.0090
     26 C          64.8326   91.3608   13.0997 C.ar    1  UNL1        0.0300
     27 C          65.6472   92.0182   14.1740 C.ar    1  UNL1        0.1672
     28 F          65.7107   91.4113   15.5443 F       1  UNL1       -0.2018
     29 C          66.3984   93.2823   13.8781 C.ar    1  UNL1        0.1696
     30 F          67.2130   93.9397   14.9525 F       1  UNL1       -0.2017
     31 C          66.3350   93.8892   12.5078 C.ar    1  UNL1        0.0612
     32 C          65.5204   93.2318   11.4334 C.ar    1  UNL1        0.1386
     33 F          65.4569   93.8387   10.0631 F       1  UNL1       -0.2044
@<TRIPOS>BOND
     1    21    20    1
     2    21    19    1
     3    19     1    1
     4     1     2    2
     5     1     3   am
     6     3     4    1
     7     4     5    1
     8     5     6    1
     9     6     7   am
    10     7     8    2
    11     7    11    1
    12    11    12   ar
    13    12    13   ar
    14    13    14   ar
    15    14    15    1
    16    14    16   ar
    17    16    17   ar
    18     6     9    1
    19     9    10    1
    20    21    24    1
    21    24    25    1
    22    25    26   ar
    23    26    27   ar
    24    27    28    1
    25    27    29   ar
    26    29    30    1
    27    29    31   ar
    28    31    32   ar
    29    32    33    1
    30    10     3    1
    31    32    25   ar
    32    17    11   ar
    33    20    22    1
    34    20    23    1
    35    15    18    1
@<TRIPOS>MOLECULE
*****
 33 35 0 0 0
SMALL
GASTEIGER

@<TRIPOS>ATOM
      1 C          64.2365   82.8930   11.0652 C.2     1  UNL1        0.2271
      2 O          64.7482   82.2709    9.7998 O.2     1  UNL1       -0.2748
      3 N          63.3034   84.0657   11.0004 N.am    1  UNL1       -0.2760
      4 C          62.8821   84.6163    9.6702 C.3     1  UNL1        0.1149
      5 C          61.9490   85.7890    9.6055 C.3     1  UNL1        0.1152
      6 N          61.4373   86.4111   10.8709 N.am    1  UNL1       -0.2726
      7 C          60.5043   87.5838   10.8061 C.2     1  UNL1        0.2491
      8 O          59.9926   88.2059   12.0714 O.2     1  UNL1       -0.2699
      9 C          61.8587   85.8605   12.2010 C.3     1  UNL1        0.1152
     10 C          62.7917   84.6878   12.2657 C.3     1  UNL1        0.1149
     11 C          60.0829   88.1344    9.4759 C.ar    1  UNL1        0.0538
     12 C          60.4351   89.5437    9.1019 C.ar    1  UNL1        0.0076
     13 C          60.0138   90.0942    7.7717 C.ar    1  UNL1        0.0368
     14 C          59.2402   89.2355    6.8156 C.ar    1  UNL1        0.1337
     15 O          58.8188   89.7861    5.4855 O.3     1  UNL1       -0.5055
     16 C          58.8880   87.8263    7.1896 C.ar    1  UNL1        0.0368
     17 C          59.3093   87.2757    8.5197 C.ar    1  UNL1        0.0076
     18 H          59.0389   90.6664    5.2518 H       1  UNL1        0.2922
     19 C          64.6579   82.3424   12.3953 C.3     1  UNL1        0.1010
     20 N          62.3531   81.3431   13.0583 N.3     1  UNL1       -0.3215
     21 C          63.6269   82.0366   13.4411 C.3     1  UNL1        0.0644
     22 H          62.3561   81.1556   12.0557 H       1  UNL1        0.1188
     23 H          61.5585   81.9390   13.2903 H       1  UNL1        0.1188
     24 C          63.8697   82.4243   14.8696 C.3     1  UNL1        0.0447
     25 C          63.7565   83.8607   15.2865 C.ar    1  UNL1        0.0090
     26 C          62.5490   84.3292   16.0431 C.ar    1  UNL1        0.0300
     27 C          62.4359   85.7656   16.4600 C.ar    1  UNL1        0.1672
     28 F          61.2284   86.2341   17.2166 F       1  UNL1       -0.2018
     29 C          63.5302   86.7336   16.1202 C.ar    1  UNL1        0.1696
     30 F          63.4170   88.1701   16.5371 F       1  UNL1       -0.2017
     31 C          64.7377   86.2652   15.3636 C.ar    1  UNL1        0.0612
     32 C          64.8509   84.8287   14.9467 C.ar    1  UNL1        0.1386
     33 F          66.0583   84.3603   14.1900 F       1  UNL1       -0.2044
@<TRIPOS>BOND
     1    21    20    1
     2    21    19    1
     3    19     1    1
     4     1     2    2
     5     1     3   am
     6     3     4    1
     7     4     5    1
     8     5     6    1
     9     6     7   am
    10     7     8    2
    11     7    11    1
    12    11    12   ar
    13    12    13   ar
    14    13    14   ar
    15    14    15    1
    16    14    16   ar
    17    16    17   ar
    18     6     9    1
    19     9    10    1
    20    21    24    1
    21    24    25    1
    22    25    26   ar
    23    26    27   ar
    24    27    28    1
    25    27    29   ar
    26    29    30    1
    27    29    31   ar
    28    31    32   ar
    29    32    33    1
    30    10     3    1
    31    32    25   ar
    32    17    11   ar
    33    20    22    1
    34    20    23    1
    35    15    18    1
@<TRIPOS>MOLECULE
*****
 33 35 0 0 0
SMALL
GASTEIGER

@<TRIPOS>ATOM
      1 C          61.1285   89.0522    9.9952 C.2     1  UNL1        0.2271
      2 O          60.3186   88.8467    8.7495 O.2     1  UNL1       -0.2748
      3 N          61.7347   87.8741   10.6985 N.am    1  UNL1       -0.2760
      4 C          61.5310   86.4905   10.1560 C.3     1  UNL1        0.1149
      5 C          62.1372   85.3125   10.8593 C.3     1  UNL1        0.1152
      6 N          62.9472   85.5180   12.1051 N.am    1  UNL1       -0.2726
      7 C          63.5534   84.3398   12.8083 C.2     1  UNL1        0.2491
      8 O          64.3633   84.5453   14.0541 O.2     1  UNL1       -0.2699
      9 C          63.1509   86.9015   12.6475 C.3     1  UNL1        0.1152
     10 C          62.5447   88.0796   11.9442 C.3     1  UNL1        0.1149
     11 C          63.3497   82.9563   12.2659 C.ar    1  UNL1        0.0538
     12 C          63.7306   82.6424   10.8495 C.ar    1  UNL1        0.0076
     13 C          63.5269   81.2588   10.3070 C.ar    1  UNL1        0.0368
     14 C          62.9422   80.1891   11.1811 C.ar    1  UNL1        0.1337
     15 O          62.7385   78.8056   10.6387 O.3     1  UNL1       -0.5055
     16 C          62.5613   80.5030   12.5976 C.ar    1  UNL1        0.0368
     17 C          62.7650   81.8865   13.1400 C.ar    1  UNL1        0.0076
     18 H          62.9765   78.6095    9.7538 H       1  UNL1        0.2922
     19 C          61.3322   90.4357   10.5376 C.3     1  UNL1        0.1010
     20 N          63.6278   91.5158    9.9773 N.3     1  UNL1       -0.3215
     21 C          62.6991   90.8788   10.9682 C.3     1  UNL1        0.0644
     22 H          63.1702   91.5679    9.0672 H       1  UNL1        0.1188
     23 H          64.4772   90.9565    9.8992 H       1  UNL1        0.1188
     24 C          63.1373   90.6850   12.3895 C.3     1  UNL1        0.0447
     25 C          64.4094   91.3145   12.8747 C.ar    1  UNL1        0.0090
     26 C          64.9462   92.5399   12.1961 C.ar    1  UNL1        0.0300
     27 C          66.2183   93.1694   12.6812 C.ar    1  UNL1        0.1672
     28 F          66.7550   94.3947   12.0026 F       1  UNL1       -0.2018
     29 C          66.9537   92.5736   13.8449 C.ar    1  UNL1        0.1696
     30 F          68.2258   93.2031   14.3300 F       1  UNL1       -0.2017
     31 C          66.4170   91.3483   14.5235 C.ar    1  UNL1        0.0612
     32 C          65.1448   90.7187   14.0383 C.ar    1  UNL1        0.1386
     33 F          64.6082   89.4934   14.7169 F       1  UNL1       -0.2044
@<TRIPOS>BOND
     1    21    20    1
     2    21    19    1
     3    19     1    1
     4     1     2    2
     5     1     3   am
     6     3     4    1
     7     4     5    1
     8     5     6    1
     9     6     7   am
    10     7     8    2
    11     7    11    1
    12    11    12   ar
    13    12    13   ar
    14    13    14   ar
    15    14    15    1
    16    14    16   ar
    17    16    17   ar
    18     6     9    1
    19     9    10    1
    20    21    24    1
    21    24    25    1
    22    25    26   ar
    23    26    27   ar
    24    27    28    1
    25    27    29   ar
    26    29    30    1
    27    29    31   ar
    28    31    32   ar
    29    32    33    1
    30    10     3    1
    31    32    25   ar
    32    17    11   ar
    33    20    22    1
    34    20    23    1
    35    15    18    1
