@<TRIPOS>MOLECULE
*****
 31 35 0 0 0
SMALL
GASTEIGER

@<TRIPOS>ATOM
      1 C          64.2138   89.4283   14.3191 C.ar    1  UNL1        0.1829
      2 N          64.0606   88.0404   13.7712 N.ar    1  UNL1       -0.2103
      3 C          63.5556   87.1593   14.8752 C.ar    1  UNL1        0.1414
      4 N          63.3966   88.0027   16.1054 N.ar    1  UNL1       -0.2361
      5 N          63.8034   89.4050   15.7617 N.ar    1  UNL1       -0.1488
      6 C          62.9019   87.3849   17.3795 C.3     1  UNL1        0.1289
      7 C          62.5663   85.9236   17.4235 C.3     1  UNL1        0.0272
      8 C          62.7253   85.0802   16.1933 C.3     1  UNL1        0.0140
      9 C          63.2199   85.6981   14.9191 C.3     1  UNL1        0.0803
     10 C          63.3789   84.8547   13.6889 C.ar    1  UNL1       -0.0192
     11 C          62.7011   85.2552   12.4122 C.ar    1  UNL1       -0.0019
     12 C          62.8601   84.4118   11.1820 C.ar    1  UNL1        0.0293
     13 C          63.6969   83.1679   11.2285 C.ar    1  UNL1        0.1398
     14 F          63.8559   82.3245    9.9983 F       1  UNL1       -0.2042
     15 C          64.3747   82.7673   12.5052 C.ar    1  UNL1        0.0251
     16 C          64.2157   83.6107   13.7354 C.ar    1  UNL1       -0.0232
     17 C          64.8936   83.2100   15.0122 C.3     1  UNL1        0.0308
     18 C          66.3188   92.6416   13.3224 C.ar    1  UNL1        0.1548
     19 C          65.8394   91.4412   14.0834 C.ar    1  UNL1        0.0415
     20 C          64.6932   90.6287   13.5581 C.ar    1  UNL1        0.0406
     21 C          64.0263   91.0167   12.2718 C.ar    1  UNL1        0.0048
     22 C          64.5057   92.2172   11.5107 C.ar    1  UNL1        0.0207
     23 C          65.6519   93.0296   12.0361 C.ar    1  UNL1        0.0994
     24 N          66.1313   94.2300   11.2750 N.ar    1  UNL1       -0.2839
     25 C          66.1615   95.6413   11.7823 C.ar    1  UNL1        0.1826
     26 N          66.7135   96.5135   10.6939 N.ar    1  UNL1       -0.2280
     27 C          67.0246   95.6412    9.5139 C.ar    1  UNL1        0.0786
     28 C          67.5953   96.0996    8.2047 C.3     1  UNL1        0.0538
     29 C          66.6648   94.2300    9.8731 C.ar    1  UNL1        0.0963
     30 C          67.7871   93.4373   15.3127 C.3     1  UNL1        0.2525
     31 O          67.4651   93.4541   13.8478 O.3     1  UNL1       -0.4700
@<TRIPOS>BOND
     1    30    31    1
     2    31    18    1
     3    18    19   ar
     4    19    20   ar
     5    20     1    1
     6     1     2   ar
     7     2     3   ar
     8     3     4   ar
     9     4     5   ar
    10     4     6    1
    11     6     7    1
    12     7     8    1
    13     8     9    1
    14     9    10    1
    15    10    11   ar
    16    11    12   ar
    17    12    13   ar
    18    13    14    1
    19    13    15   ar
    20    15    16   ar
    21    16    17    1
    22    20    21   ar
    23    21    22   ar
    24    22    23   ar
    25    23    24    1
    26    24    25   ar
    27    25    26   ar
    28    26    27   ar
    29    27    28    1
    30    27    29   ar
    31    23    18   ar
    32    29    24   ar
    33     5     1   ar
    34    16    10   ar
    35     9     3    1
@<TRIPOS>MOLECULE
*****
 31 35 0 0 0
SMALL
GASTEIGER

@<TRIPOS>ATOM
      1 C          64.2282   89.3977   14.6186 C.ar    1  UNL1        0.1829
      2 N          64.1207   87.9736   14.1599 N.ar    1  UNL1       -0.2103
      3 C          63.5976   87.1564   15.3037 C.ar    1  UNL1        0.1414
      4 N          63.3817   88.0754   16.4694 N.ar    1  UNL1       -0.2361
      5 N          63.7715   89.4606   16.0460 N.ar    1  UNL1       -0.1488
      6 C          62.8582   87.5321   17.7659 C.3     1  UNL1        0.1289
      7 C          62.5505   86.0699   17.8966 C.3     1  UNL1        0.0272
      8 C          62.7663   85.1509   16.7309 C.3     1  UNL1        0.0140
      9 C          63.2898   85.6941   15.4344 C.3     1  UNL1        0.0803
     10 C          63.5057   84.7751   14.2687 C.ar    1  UNL1       -0.0192
     11 C          62.3305   84.2631   13.4897 C.ar    1  UNL1       -0.0019
     12 C          62.5464   83.3442   12.3240 C.ar    1  UNL1        0.0293
     13 C          63.9373   82.9372   11.9373 C.ar    1  UNL1        0.1398
     14 F          64.1531   82.0182   10.7716 F       1  UNL1       -0.2042
     15 C          65.1124   83.4492   12.7163 C.ar    1  UNL1        0.0251
     16 C          64.8966   84.3681   13.8820 C.ar    1  UNL1       -0.0232
     17 C          66.0718   84.8801   14.6611 C.3     1  UNL1        0.0308
     18 C          64.5709   91.9879   11.6314 C.ar    1  UNL1        0.1548
     19 C          64.0909   90.8300   12.4553 C.ar    1  UNL1        0.0415
     20 C          64.7082   90.5556   13.7946 C.ar    1  UNL1        0.0406
     21 C          65.8053   91.4391   14.3099 C.ar    1  UNL1        0.0048
     22 C          66.2852   92.5970   13.4859 C.ar    1  UNL1        0.0207
     23 C          65.6680   92.8714   12.1467 C.ar    1  UNL1        0.0994
     24 N          66.1480   94.0293   11.3227 N.ar    1  UNL1       -0.2839
     25 C          66.1754   95.4661   11.7526 C.ar    1  UNL1        0.1826
     26 N          66.7291   96.2785   10.6198 N.ar    1  UNL1       -0.2280
     27 C          67.0439   95.3438    9.4896 C.ar    1  UNL1        0.0786
     28 C          67.6172   95.7311    8.1587 C.3     1  UNL1        0.0538
     29 C          66.6847   93.9537    9.9241 C.ar    1  UNL1        0.0963
     30 C          62.9407   91.3126    9.7244 C.3     1  UNL1        0.2525
     31 O          63.9536   92.2622   10.2920 O.3     1  UNL1       -0.4700
@<TRIPOS>BOND
     1    30    31    1
     2    31    18    1
     3    18    19   ar
     4    19    20   ar
     5    20     1    1
     6     1     2   ar
     7     2     3   ar
     8     3     4   ar
     9     4     5   ar
    10     4     6    1
    11     6     7    1
    12     7     8    1
    13     8     9    1
    14     9    10    1
    15    10    11   ar
    16    11    12   ar
    17    12    13   ar
    18    13    14    1
    19    13    15   ar
    20    15    16   ar
    21    16    17    1
    22    20    21   ar
    23    21    22   ar
    24    22    23   ar
    25    23    24    1
    26    24    25   ar
    27    25    26   ar
    28    26    27   ar
    29    27    28    1
    30    27    29   ar
    31    23    18   ar
    32    29    24   ar
    33     5     1   ar
    34    16    10   ar
    35     9     3    1
@<TRIPOS>MOLECULE
*****
 31 35 0 0 0
SMALL
GASTEIGER

@<TRIPOS>ATOM
      1 C          63.0042   89.6073   11.4977 C.ar    1  UNL1        0.1829
      2 N          62.9965   88.1233   11.2792 N.ar    1  UNL1       -0.2103
      3 C          61.8666   87.7977   10.3479 C.ar    1  UNL1        0.1414
      4 N          61.1759   89.0805    9.9909 N.ar    1  UNL1       -0.2361
      5 N          61.8790   90.1988   10.7015 N.ar    1  UNL1       -0.1488
      6 C          59.9960   89.0645    9.0649 C.3     1  UNL1        0.1289
      7 C          59.5068   87.7657    8.4959 C.3     1  UNL1        0.0272
      8 C          60.1975   86.4829    8.8530 C.3     1  UNL1        0.0140
      9 C          61.3773   86.4989    9.7790 C.3     1  UNL1        0.0803
     10 C          62.0680   85.2161   10.1360 C.ar    1  UNL1       -0.0192
     11 C          61.9171   84.6412   11.5132 C.ar    1  UNL1       -0.0019
     12 C          62.6077   83.3584   11.8703 C.ar    1  UNL1        0.0293
     13 C          63.4493   82.6506   10.8502 C.ar    1  UNL1        0.1398
     14 F          64.1400   81.3678   11.2072 F       1  UNL1       -0.2042
     15 C          63.6003   83.2256    9.4730 C.ar    1  UNL1        0.0251
     16 C          62.9096   84.5083    9.1160 C.ar    1  UNL1       -0.0232
     17 C          63.0606   85.0833    7.7387 C.3     1  UNL1        0.0308
     18 C          65.5354   92.4057   12.7274 C.ar    1  UNL1        0.1548
     19 C          64.5717   91.6465   11.8643 C.ar    1  UNL1        0.0415
     20 C          63.9679   90.3664   12.3609 C.ar    1  UNL1        0.0406
     21 C          64.3278   89.8454   13.7206 C.ar    1  UNL1        0.0048
     22 C          65.2915   90.6045   14.5838 C.ar    1  UNL1        0.0207
     23 C          65.8953   91.8847   14.0872 C.ar    1  UNL1        0.0994
     24 N          66.8589   92.6438   14.9503 N.ar    1  UNL1       -0.2839
     25 C          66.5845   93.1664   16.3293 C.ar    1  UNL1        0.1826
     26 N          67.8222   93.8592   16.8173 N.ar    1  UNL1       -0.2280
     27 C          68.8616   93.7648   15.7399 C.ar    1  UNL1        0.0786
     28 C          70.2522   94.3234   15.8049 C.3     1  UNL1        0.0538
     29 C          68.2663   93.0136   14.5861 C.ar    1  UNL1        0.0963
     30 C          65.7573   94.2218   10.8829 C.3     1  UNL1        0.2525
     31 O          66.1392   93.6859   12.2308 O.3     1  UNL1       -0.4700
@<TRIPOS>BOND
     1    30    31    1
     2    31    18    1
     3    18    19   ar
     4    19    20   ar
     5    20     1    1
     6     1     2   ar
     7     2     3   ar
     8     3     4   ar
     9     4     5   ar
    10     4     6    1
    11     6     7    1
    12     7     8    1
    13     8     9    1
    14     9    10    1
    15    10    11   ar
    16    11    12   ar
    17    12    13   ar
    18    13    14    1
    19    13    15   ar
    20    15    16   ar
    21    16    17    1
    22    20    21   ar
    23    21    22   ar
    24    22    23   ar
    25    23    24    1
    26    24    25   ar
    27    25    26   ar
    28    26    27   ar
    29    27    28    1
    30    27    29   ar
    31    23    18   ar
    32    29    24   ar
    33     5     1   ar
    34    16    10   ar
    35     9     3    1
@<TRIPOS>MOLECULE
*****
 31 35 0 0 0
SMALL
GASTEIGER

@<TRIPOS>ATOM
      1 C          63.8682   87.6833   14.4509 C.ar    1  UNL1        0.1829
      2 N          64.4940   88.8193   13.6972 N.ar    1  UNL1       -0.2103
      3 C          64.4885   90.0258   14.5885 C.ar    1  UNL1        0.1414
      4 N          63.8592   89.6355   15.8930 N.ar    1  UNL1       -0.2361
      5 N          63.4759   88.1878   15.8079 N.ar    1  UNL1       -0.1488
      6 C          63.7166   90.6487   16.9898 C.3     1  UNL1        0.1289
      7 C          64.2033   92.0523   16.7820 C.3     1  UNL1        0.0272
      8 C          64.8326   92.4426   15.4775 C.3     1  UNL1        0.0140
      9 C          64.9751   91.4293   14.3808 C.3     1  UNL1        0.0803
     10 C          65.6044   91.8196   13.0763 C.ar    1  UNL1       -0.0192
     11 C          64.7484   92.0206   11.8611 C.ar    1  UNL1       -0.0019
     12 C          65.3776   92.4109   10.5566 C.ar    1  UNL1        0.0293
     13 C          66.8629   92.6002   10.4673 C.ar    1  UNL1        0.1398
     14 F          67.4921   92.9905    9.1628 F       1  UNL1       -0.2042
     15 C          67.7189   92.3992   11.6825 C.ar    1  UNL1        0.0251
     16 C          67.0897   92.0089   12.9870 C.ar    1  UNL1       -0.0232
     17 C          67.9458   91.8079   14.2022 C.3     1  UNL1        0.0308
     18 C          62.9163   84.6715   12.0482 C.ar    1  UNL1        0.1548
     19 C          63.1150   86.0669   12.5615 C.ar    1  UNL1        0.0415
     20 C          63.6695   86.2880   13.9376 C.ar    1  UNL1        0.0406
     21 C          64.0254   85.1137   14.8003 C.ar    1  UNL1        0.0048
     22 C          63.8268   83.7183   14.2870 C.ar    1  UNL1        0.0207
     23 C          63.2722   83.4972   12.9110 C.ar    1  UNL1        0.0994
     24 N          63.0736   82.1019   12.3977 N.ar    1  UNL1       -0.2839
     25 C          62.7223   80.9001   13.2238 C.ar    1  UNL1        0.1826
     26 N          62.6230   79.7188   12.3048 N.ar    1  UNL1       -0.2280
     27 C          62.9128   80.1904   10.9107 C.ar    1  UNL1        0.0786
     28 C          62.9224   79.3387    9.6759 C.3     1  UNL1        0.0538
     29 C          63.1913   81.6632   10.9681 C.ar    1  UNL1        0.0963
     30 C          62.3698   85.5681    9.6717 C.3     1  UNL1        0.2525
     31 O          62.3617   84.4504   10.6721 O.3     1  UNL1       -0.4700
@<TRIPOS>BOND
     1    30    31    1
     2    31    18    1
     3    18    19   ar
     4    19    20   ar
     5    20     1    1
     6     1     2   ar
     7     2     3   ar
     8     3     4   ar
     9     4     5   ar
    10     4     6    1
    11     6     7    1
    12     7     8    1
    13     8     9    1
    14     9    10    1
    15    10    11   ar
    16    11    12   ar
    17    12    13   ar
    18    13    14    1
    19    13    15   ar
    20    15    16   ar
    21    16    17    1
    22    20    21   ar
    23    21    22   ar
    24    22    23   ar
    25    23    24    1
    26    24    25   ar
    27    25    26   ar
    28    26    27   ar
    29    27    28    1
    30    27    29   ar
    31    23    18   ar
    32    29    24   ar
    33     5     1   ar
    34    16    10   ar
    35     9     3    1
@<TRIPOS>MOLECULE
*****
 31 35 0 0 0
SMALL
GASTEIGER

@<TRIPOS>ATOM
      1 C          62.1325   85.6490   10.0913 C.ar    1  UNL1        0.1829
      2 N          62.4320   85.8213   11.5510 N.ar    1  UNL1       -0.2103
      3 C          63.1760   84.6055   12.0181 C.ar    1  UNL1        0.1414
      4 N          63.3364   83.6818   10.8472 N.ar    1  UNL1       -0.2361
      5 N          62.6914   84.3268    9.6563 N.ar    1  UNL1       -0.1488
      6 C          64.0490   82.3728   11.0165 C.3     1  UNL1        0.1289
      7 C          64.6012   81.9875   12.3568 C.3     1  UNL1        0.0272
      8 C          64.4408   82.9112   13.5278 C.3     1  UNL1        0.0140
      9 C          63.7283   84.2201   13.3585 C.3     1  UNL1        0.0803
     10 C          63.5679   85.1438   14.5294 C.ar    1  UNL1       -0.0192
     11 C          64.2613   86.4738   14.5360 C.ar    1  UNL1       -0.0019
     12 C          64.1010   87.3975   15.7069 C.ar    1  UNL1        0.0293
     13 C          63.2472   86.9911   16.8713 C.ar    1  UNL1        0.1398
     14 F          63.0869   87.9147   18.0423 F       1  UNL1       -0.2042
     15 C          62.5538   85.6610   16.8648 C.ar    1  UNL1        0.0251
     16 C          62.7142   84.7374   15.6938 C.ar    1  UNL1       -0.0232
     17 C          62.0207   83.4073   15.6873 C.3     1  UNL1        0.0308
     18 C          60.4021   88.9954    8.8433 C.ar    1  UNL1        0.1548
     19 C          61.1324   88.0172    9.7149 C.ar    1  UNL1        0.0415
     20 C          61.4022   86.6273    9.2197 C.ar    1  UNL1        0.0406
     21 C          60.9418   86.2157    7.8528 C.ar    1  UNL1        0.0048
     22 C          60.2115   87.1939    6.9811 C.ar    1  UNL1        0.0207
     23 C          59.9417   88.5838    7.4764 C.ar    1  UNL1        0.0994
     24 N          59.2114   89.5620    6.6047 N.ar    1  UNL1       -0.2839
     25 C          57.7227   89.7211    6.5132 C.ar    1  UNL1        0.1826
     26 N          57.4329   90.8104    5.5235 N.ar    1  UNL1       -0.2280
     27 C          58.7425   91.3245    5.0034 C.ar    1  UNL1        0.0786
     28 C          58.9215   92.4182    3.9925 C.3     1  UNL1        0.0538
     29 C          59.8417   90.5530    5.6716 C.ar    1  UNL1        0.0963
     30 C          59.9966   90.6442   10.8099 C.3     1  UNL1        0.2525
     31 O          60.1323   90.3854    9.3386 O.3     1  UNL1       -0.4700
@<TRIPOS>BOND
     1    30    31    1
     2    31    18    1
     3    18    19   ar
     4    19    20   ar
     5    20     1    1
     6     1     2   ar
     7     2     3   ar
     8     3     4   ar
     9     4     5   ar
    10     4     6    1
    11     6     7    1
    12     7     8    1
    13     8     9    1
    14     9    10    1
    15    10    11   ar
    16    11    12   ar
    17    12    13   ar
    18    13    14    1
    19    13    15   ar
    20    15    16   ar
    21    16    17    1
    22    20    21   ar
    23    21    22   ar
    24    22    23   ar
    25    23    24    1
    26    24    25   ar
    27    25    26   ar
    28    26    27   ar
    29    27    28    1
    30    27    29   ar
    31    23    18   ar
    32    29    24   ar
    33     5     1   ar
    34    16    10   ar
    35     9     3    1
