@<TRIPOS>MOLECULE
*****
 37 40 0 0 0
SMALL
GASTEIGER

@<TRIPOS>ATOM
      1 C          65.8610   93.1204   12.7359 C.ar    1  UNL1        0.0930
      2 C          66.4112   93.7880   13.9613 C.ar    1  UNL1        0.1067
      3 N          66.0575   92.9419   15.1483 N.ar    1  UNL1       -0.2252
      4 C          65.2887   91.7515   14.6566 C.ar    1  UNL1        0.1586
      5 N          64.6835   90.5813   15.3738 N.ar    1  UNL1       -0.3349
      6 C          63.9569   89.5215   14.6000 C.ar    1  UNL1        0.0945
      7 C          63.8354   89.6319   13.1090 C.ar    1  UNL1        0.1176
      8 N          64.4406   90.8020   12.3918 N.ar    1  UNL1       -0.2390
      9 C          65.1672   91.8618   13.1656 C.ar    1  UNL1        0.1210
     10 H          64.7632   90.5089   16.3524 H       1  UNL1        0.1675
     11 C          63.1088   88.5720   12.3353 C.ar    1  UNL1        0.1213
     12 N          63.2446   87.0905   12.5277 N.ar    1  UNL1       -0.1677
     13 N          62.3385   86.4104   11.5446 N.ar    1  UNL1       -0.2507
     14 C          61.6427   87.4715   10.7446 C.ar    1  UNL1        0.0816
     15 C          60.6371   87.3939    9.6343 C.ar    1  UNL1        0.0484
     16 C          60.1076   88.6520    9.0127 C.ar    1  UNL1        0.1416
     17 F          59.1019   88.5744    7.9024 F       1  UNL1       -0.2041
     18 C          60.5836   89.9880    9.5014 C.ar    1  UNL1        0.0298
     19 C          61.5892   90.0656   10.6117 C.ar    1  UNL1        0.0054
     20 C          62.1187   88.8074   11.2333 C.ar    1  UNL1        0.0383
     21 C          62.1597   84.9293   11.3889 C.3     1  UNL1        0.1293
     22 C          63.1229   83.9845   12.0444 C.3     1  UNL1        0.0516
     23 C          62.8758   83.5154   13.4475 C.3     1  UNL1        0.1530
     24 S          63.3178   84.3564   14.6083 S.O2    1  UNL1       -0.0082
     25 C          63.7597   85.1974   15.7691 C.3     1  UNL1        0.1760
     26 O          64.7511   84.0883   14.2567 O.2     1  UNL1       -0.1729
     27 O          61.8844   84.6245   14.9599 O.2     1  UNL1       -0.1729
     28 N          66.9822   94.6922   10.9972 N.am    1  UNL1       -0.3015
     29 C          65.9830   93.6232   11.3280 C.2     1  UNL1        0.2489
     30 O          65.1062   93.0572   10.2507 O.2     1  UNL1       -0.2700
     31 H          67.5577   95.0637   11.7043 H       1  UNL1        0.1497
     32 C          68.0290   94.0596    9.2641 C.3     1  UNL1        0.0222
     33 C          67.1042   95.1950    9.5893 C.3     1  UNL1        0.0841
     34 C          66.1795   96.3303    9.9146 C.3     1  UNL1        0.0222
     35 C          67.2263   95.6977    8.1814 C.3     1  UNL1        0.1549
     36 O          65.9927   95.9755    7.3745 O.3     1  UNL1       -0.3803
     37 H          65.5202   95.1445    7.2097 H       1  UNL1        0.2105
@<TRIPOS>BOND
     1    32    33    1
     2    33    34    1
     3    33    35    1
     4    35    36    1
     5    33    28    1
     6    28    29   am
     7    29    30    2
     8    29     1    1
     9     1     2   ar
    10     2     3   ar
    11     3     4   ar
    12     4     5   ar
    13     5     6   ar
    14     6     7   ar
    15     7    11    1
    16    11    12   ar
    17    12    13   ar
    18    13    21    1
    19    21    22    1
    20    22    23    1
    21    23    24    1
    22    24    25    1
    23    24    26    2
    24    24    27    2
    25    13    14   ar
    26    14    15   ar
    27    15    16   ar
    28    16    17    1
    29    16    18   ar
    30    18    19   ar
    31    19    20   ar
    32     7     8   ar
    33     8     9   ar
    34     9     1   ar
    35     9     4    1
    36    20    11   ar
    37    20    14   ar
    38    36    37    1
    39    28    31    1
    40     5    10    1
@<TRIPOS>MOLECULE
*****
 37 40 0 0 0
SMALL
GASTEIGER

@<TRIPOS>ATOM
      1 C          66.4160   92.3422   13.7218 C.ar    1  UNL1        0.0930
      2 C          66.5446   93.1482   14.9803 C.ar    1  UNL1        0.1067
      3 N          65.5369   92.6337   15.9651 N.ar    1  UNL1       -0.2252
      4 C          64.7855   91.5098   15.3152 C.ar    1  UNL1        0.1586
      5 N          63.6767   90.6272   15.8068 N.ar    1  UNL1       -0.3349
      6 C          63.1114   89.5645   14.9119 C.ar    1  UNL1        0.0945
      7 C          63.6547   89.3844   13.5254 C.ar    1  UNL1        0.1176
      8 N          64.7634   90.2670   13.0338 N.ar    1  UNL1       -0.2390
      9 C          65.3288   91.3297   13.9287 C.ar    1  UNL1        0.1210
     10 H          63.3201   90.7455   16.7168 H       1  UNL1        0.1675
     11 C          63.0892   88.3216   12.6304 C.ar    1  UNL1        0.1213
     12 N          63.2758   86.8420   12.7919 N.ar    1  UNL1       -0.1677
     13 N          62.5399   86.1578   11.6782 N.ar    1  UNL1       -0.2507
     14 C          61.8985   87.2145   10.8285 C.ar    1  UNL1        0.0816
     15 C          61.0491   87.1318    9.5950 C.ar    1  UNL1        0.0484
     16 C          60.5393   88.3863    8.9499 C.ar    1  UNL1        0.1416
     17 F          59.6899   88.3036    7.7163 F       1  UNL1       -0.2041
     18 C          60.8788   89.7237    9.5384 C.ar    1  UNL1        0.0298
     19 C          61.7282   89.8064   10.7720 C.ar    1  UNL1        0.0054
     20 C          62.2380   88.5518   11.4170 C.ar    1  UNL1        0.0383
     21 C          62.4594   84.6769   11.4537 C.3     1  UNL1        0.1293
     22 C          63.2466   83.7425   12.3240 C.3     1  UNL1        0.0516
     23 C          62.5604   82.9791   13.4177 C.3     1  UNL1        0.1530
     24 S          62.4498   81.4855   13.3344 S.O2    1  UNL1       -0.0082
     25 C          62.3394   79.9919   13.2509 C.3     1  UNL1        0.1760
     26 O          61.4083   81.5023   14.4136 O.2     1  UNL1       -0.1729
     27 O          63.4914   81.4687   12.2550 O.2     1  UNL1       -0.1729
     28 N          66.6409   93.2137   11.2845 N.am    1  UNL1       -0.3015
     29 C          67.2314   92.5180   12.4751 C.2     1  UNL1        0.2489
     30 O          68.6373   91.9981   12.4189 O.2     1  UNL1       -0.2700
     31 H          65.7182   93.5549   11.3213 H       1  UNL1        0.1497
     32 C          67.2092   94.8682   10.0847 C.3     1  UNL1        0.0222
     33 C          67.4564   93.3894   10.0378 C.3     1  UNL1        0.0841
     34 C          67.7034   91.9107    9.9909 C.3     1  UNL1        0.0222
     35 C          68.2717   93.5652    8.7912 C.3     1  UNL1        0.1549
     36 O          68.8034   92.3639    8.0671 O.3     1  UNL1       -0.3803
     37 H          69.4556   91.9123    8.6253 H       1  UNL1        0.2105
@<TRIPOS>BOND
     1    32    33    1
     2    33    34    1
     3    33    35    1
     4    35    36    1
     5    33    28    1
     6    28    29   am
     7    29    30    2
     8    29     1    1
     9     1     2   ar
    10     2     3   ar
    11     3     4   ar
    12     4     5   ar
    13     5     6   ar
    14     6     7   ar
    15     7    11    1
    16    11    12   ar
    17    12    13   ar
    18    13    21    1
    19    21    22    1
    20    22    23    1
    21    23    24    1
    22    24    25    1
    23    24    26    2
    24    24    27    2
    25    13    14   ar
    26    14    15   ar
    27    15    16   ar
    28    16    17    1
    29    16    18   ar
    30    18    19   ar
    31    19    20   ar
    32     7     8   ar
    33     8     9   ar
    34     9     1   ar
    35     9     4    1
    36    20    11   ar
    37    20    14   ar
    38    36    37    1
    39    28    31    1
    40     5    10    1
@<TRIPOS>MOLECULE
*****
 37 40 0 0 0
SMALL
GASTEIGER

@<TRIPOS>ATOM
      1 C          63.9196   85.2853   14.4364 C.ar    1  UNL1        0.0930
      2 C          64.6395   85.9737   15.5579 C.ar    1  UNL1        0.1067
      3 N          64.6355   87.4469   15.2761 N.ar    1  UNL1       -0.2252
      4 C          63.9132   87.6691   13.9803 C.ar    1  UNL1        0.1586
      5 N          63.6013   88.9153   13.2060 N.ar    1  UNL1       -0.3349
      6 C          62.8469   88.8255   11.9126 C.ar    1  UNL1        0.0945
      7 C          62.4044   87.4895   11.3937 C.ar    1  UNL1        0.1176
      8 N          62.7163   86.2433   12.1680 N.ar    1  UNL1       -0.2390
      9 C          63.4708   86.3331   13.4613 C.ar    1  UNL1        0.1210
     10 H          63.8917   89.7921   13.5466 H       1  UNL1        0.1675
     11 C          61.6499   87.3997   10.1003 C.ar    1  UNL1        0.1213
     12 N          60.5374   88.3062    9.6638 N.ar    1  UNL1       -0.1677
     13 N          60.0754   87.8545    8.3101 N.ar    1  UNL1       -0.2507
     14 C          60.9025   86.6688    7.9099 C.ar    1  UNL1        0.0816
     15 C          60.8953   85.8087    6.6810 C.ar    1  UNL1        0.0484
     16 C          61.8610   84.6676    6.5585 C.ar    1  UNL1        0.1416
     17 F          61.8538   83.8075    5.3295 F       1  UNL1       -0.2041
     18 C          62.8342   84.3865    7.6649 C.ar    1  UNL1        0.0298
     19 C          62.8414   85.2466    8.8938 C.ar    1  UNL1        0.0054
     20 C          61.8756   86.3877    9.0163 C.ar    1  UNL1        0.0383
     21 C          58.9789   88.4788    7.4990 C.3     1  UNL1        0.1293
     22 C          59.3168   89.3984    6.3631 C.3     1  UNL1        0.0516
     23 C          58.3294   90.4369    5.9197 C.3     1  UNL1        0.1530
     24 S          58.7597   91.5319    4.9893 S.O2    1  UNL1       -0.0082
     25 C          59.1898   92.6271    4.0589 C.3     1  UNL1        0.1760
     26 O          60.1751   91.0417    5.0667 O.2     1  UNL1       -0.1729
     27 O          57.3441   92.0222    4.9119 O.2     1  UNL1       -0.1729
     28 N          62.8175   83.2754   13.2132 N.am    1  UNL1       -0.3015
     29 C          63.6890   83.8084   14.3117 C.2     1  UNL1        0.2489
     30 O          64.3298   82.8643   15.2853 O.2     1  UNL1       -0.2700
     31 H          62.3968   83.8950   12.5741 H       1  UNL1        0.1497
     32 C          61.6733   81.8408   14.2775 C.3     1  UNL1        0.0222
     33 C          62.5869   81.7985   13.0885 C.3     1  UNL1        0.0841
     34 C          63.5005   81.7562   11.8995 C.3     1  UNL1        0.0222
     35 C          62.3563   80.3217   12.9638 C.3     1  UNL1        0.1549
     36 O          62.6957   79.6148   11.6850 O.3     1  UNL1       -0.3803
     37 H          62.1129   79.9304   10.9767 H       1  UNL1        0.2105
@<TRIPOS>BOND
     1    32    33    1
     2    33    34    1
     3    33    35    1
     4    35    36    1
     5    33    28    1
     6    28    29   am
     7    29    30    2
     8    29     1    1
     9     1     2   ar
    10     2     3   ar
    11     3     4   ar
    12     4     5   ar
    13     5     6   ar
    14     6     7   ar
    15     7    11    1
    16    11    12   ar
    17    12    13   ar
    18    13    21    1
    19    21    22    1
    20    22    23    1
    21    23    24    1
    22    24    25    1
    23    24    26    2
    24    24    27    2
    25    13    14   ar
    26    14    15   ar
    27    15    16   ar
    28    16    17    1
    29    16    18   ar
    30    18    19   ar
    31    19    20   ar
    32     7     8   ar
    33     8     9   ar
    34     9     1   ar
    35     9     4    1
    36    20    11   ar
    37    20    14   ar
    38    36    37    1
    39    28    31    1
    40     5    10    1
@<TRIPOS>MOLECULE
*****
 37 40 0 0 0
SMALL
GASTEIGER

@<TRIPOS>ATOM
      1 C          61.7272   86.5462   10.8530 C.ar    1  UNL1        0.0930
      2 C          60.5335   86.1386   10.0414 C.ar    1  UNL1        0.1067
      3 N          60.0237   87.3535    9.3244 N.ar    1  UNL1       -0.2252
      4 C          60.9024   88.5120    9.6929 C.ar    1  UNL1        0.1586
      5 N          60.8798   89.9567    9.2903 N.ar    1  UNL1       -0.3349
      6 C          61.9101   90.9025    9.8324 C.ar    1  UNL1        0.0945
      7 C          62.9630   90.4036   10.7771 C.ar    1  UNL1        0.1176
      8 N          62.9856   88.9588   11.1798 N.ar    1  UNL1       -0.2390
      9 C          61.9553   88.0131   10.6377 C.ar    1  UNL1        0.1210
     10 H          60.1888   90.2842    8.6702 H       1  UNL1        0.1675
     11 C          63.9933   91.3495   11.3192 C.ar    1  UNL1        0.1213
     12 N          64.7558   92.3706   10.5280 N.ar    1  UNL1       -0.1677
     13 N          65.6758   93.0925   11.4674 N.ar    1  UNL1       -0.2507
     14 C          65.4819   92.5175   12.8392 C.ar    1  UNL1        0.0816
     15 C          66.1178   92.8357   14.1600 C.ar    1  UNL1        0.0484
     16 C          65.7140   92.0766   15.3890 C.ar    1  UNL1        0.1416
     17 F          66.3499   92.3948   16.7098 F       1  UNL1       -0.2041
     18 C          64.6741   90.9994   15.2974 C.ar    1  UNL1        0.0298
     19 C          64.0382   90.6812   13.9767 C.ar    1  UNL1        0.0054
     20 C          64.4421   91.4403   12.7476 C.ar    1  UNL1        0.0383
     21 C          66.6233   94.1957   11.0996 C.3     1  UNL1        0.1293
     22 C          66.2152   95.6273   11.2839 C.3     1  UNL1        0.0516
     23 C          66.7426   96.6826   10.3576 C.3     1  UNL1        0.1530
     24 S          66.2878   96.7217    8.9288 S.O2    1  UNL1       -0.0082
     25 C          65.8330   96.7608    7.4999 C.3     1  UNL1        0.1760
     26 O          64.8649   96.8519    9.3852 O.2     1  UNL1       -0.1729
     27 O          67.7107   96.5915    8.4722 O.2     1  UNL1       -0.1729
     28 N          62.6238   84.1768   11.4294 N.am    1  UNL1       -0.3015
     29 C          62.5488   85.6452   11.7266 C.2     1  UNL1        0.2489
     30 O          63.2953   86.2124   12.8974 O.2     1  UNL1       -0.2700
     31 H          62.1339   83.8044   10.6610 H       1  UNL1        0.1497
     32 C          64.4876   83.1839   11.2281 C.3     1  UNL1        0.0222
     33 C          63.4454   83.2757   12.3030 C.3     1  UNL1        0.0841
     34 C          62.4032   83.3677   13.3779 C.3     1  UNL1        0.0222
     35 C          64.2669   82.3748   13.1766 C.3     1  UNL1        0.1549
     36 O          63.8026   82.0492   14.5654 O.3     1  UNL1       -0.3803
     37 H          63.8132   82.8540   15.1068 H       1  UNL1        0.2105
@<TRIPOS>BOND
     1    32    33    1
     2    33    34    1
     3    33    35    1
     4    35    36    1
     5    33    28    1
     6    28    29   am
     7    29    30    2
     8    29     1    1
     9     1     2   ar
    10     2     3   ar
    11     3     4   ar
    12     4     5   ar
    13     5     6   ar
    14     6     7   ar
    15     7    11    1
    16    11    12   ar
    17    12    13   ar
    18    13    21    1
    19    21    22    1
    20    22    23    1
    21    23    24    1
    22    24    25    1
    23    24    26    2
    24    24    27    2
    25    13    14   ar
    26    14    15   ar
    27    15    16   ar
    28    16    17    1
    29    16    18   ar
    30    18    19   ar
    31    19    20   ar
    32     7     8   ar
    33     8     9   ar
    34     9     1   ar
    35     9     4    1
    36    20    11   ar
    37    20    14   ar
    38    36    37    1
    39    28    31    1
    40     5    10    1
@<TRIPOS>MOLECULE
*****
 37 40 0 0 0
SMALL
GASTEIGER

@<TRIPOS>ATOM
      1 C          63.3578   85.3423   15.5404 C.ar    1  UNL1        0.0930
      2 C          62.6680   84.7836   16.7495 C.ar    1  UNL1        0.1067
      3 N          62.3320   85.9265   17.6609 N.ar    1  UNL1       -0.2252
      4 C          62.8141   87.1916   17.0151 C.ar    1  UNL1        0.1586
      5 N          62.7578   88.6257   17.4512 N.ar    1  UNL1       -0.3349
      6 C          63.3354   89.6987   16.5766 C.ar    1  UNL1        0.0945
      7 C          63.9695   89.3377   15.2660 C.ar    1  UNL1        0.1176
      8 N          64.0258   87.9036   14.8300 N.ar    1  UNL1       -0.2390
      9 C          63.4482   86.8306   15.7045 C.ar    1  UNL1        0.1210
     10 H          62.3416   88.8627   18.3113 H       1  UNL1        0.1675
     11 C          64.5471   90.4108   14.3914 C.ar    1  UNL1        0.1213
     12 N          64.2273   90.6351   12.9432 N.ar    1  UNL1       -0.1677
     13 N          65.0285   91.8109   12.4682 N.ar    1  UNL1       -0.2507
     14 C          65.8436   92.3132   13.6230 C.ar    1  UNL1        0.0816
     15 C          66.8183   93.4467   13.7457 C.ar    1  UNL1        0.0484
     16 C          67.4954   93.7149   15.0569 C.ar    1  UNL1        0.1416
     17 F          68.4702   94.8485   15.1797 F       1  UNL1       -0.2041
     18 C          67.1979   92.8496   16.2456 C.ar    1  UNL1        0.0298
     19 C          66.2233   91.7161   16.1228 C.ar    1  UNL1        0.0054
     20 C          65.5461   91.4479   14.8115 C.ar    1  UNL1        0.0383
     21 C          65.0167   92.3837   11.0820 C.3     1  UNL1        0.1293
     22 C          66.1773   93.2019   10.5988 C.3     1  UNL1        0.0516
     23 C          66.0607   94.6953   10.5191 C.3     1  UNL1        0.1530
     24 S          66.7921   95.4486    9.4479 S.O2    1  UNL1       -0.0082
     25 C          67.5236   96.2018    8.3766 C.3     1  UNL1        0.1760
     26 O          65.6098   96.3560    9.2787 O.2     1  UNL1       -0.1729
     27 O          67.9745   94.5411    9.6171 O.2     1  UNL1       -0.1729
     28 N          62.9110   83.7736   13.5180 N.am    1  UNL1       -0.3015
     29 C          63.8678   84.5516   14.3722 C.2     1  UNL1        0.2489
     30 O          65.3344   84.5388   14.0580 O.2     1  UNL1       -0.2700
     31 H          61.9484   83.7820   13.7241 H       1  UNL1        0.1497
     32 C          63.6612   81.8076   13.2503 C.3     1  UNL1        0.0222
     33 C          63.4210   82.9830   12.3498 C.3     1  UNL1        0.0841
     34 C          63.1808   84.1584   11.4493 C.3     1  UNL1        0.0222
     35 C          63.9310   82.1923   11.1816 C.3     1  UNL1        0.1549
     36 O          64.7052   82.8759   10.0938 O.3     1  UNL1       -0.3803
     37 H          64.1263   83.4992    9.6276 H       1  UNL1        0.2105
@<TRIPOS>BOND
     1    32    33    1
     2    33    34    1
     3    33    35    1
     4    35    36    1
     5    33    28    1
     6    28    29   am
     7    29    30    2
     8    29     1    1
     9     1     2   ar
    10     2     3   ar
    11     3     4   ar
    12     4     5   ar
    13     5     6   ar
    14     6     7   ar
    15     7    11    1
    16    11    12   ar
    17    12    13   ar
    18    13    21    1
    19    21    22    1
    20    22    23    1
    21    23    24    1
    22    24    25    1
    23    24    26    2
    24    24    27    2
    25    13    14   ar
    26    14    15   ar
    27    15    16   ar
    28    16    17    1
    29    16    18   ar
    30    18    19   ar
    31    19    20   ar
    32     7     8   ar
    33     8     9   ar
    34     9     1   ar
    35     9     4    1
    36    20    11   ar
    37    20    14   ar
    38    36    37    1
    39    28    31    1
    40     5    10    1
@<TRIPOS>MOLECULE
*****
 37 40 0 0 0
SMALL
GASTEIGER

@<TRIPOS>ATOM
      1 C          63.4071   85.2275   15.7542 C.ar    1  UNL1        0.0930
      2 C          62.8728   84.7147   17.0586 C.ar    1  UNL1        0.1067
      3 N          62.6136   85.8938   17.9489 N.ar    1  UNL1       -0.2252
      4 C          62.9877   87.1353   17.1946 C.ar    1  UNL1        0.1586
      5 N          62.9451   88.5875   17.5677 N.ar    1  UNL1       -0.3349
      6 C          63.3930   89.6278   16.5844 C.ar    1  UNL1        0.0945
      7 C          63.8834   89.2160   15.2280 C.ar    1  UNL1        0.1176
      8 N          63.9259   87.7638   14.8549 N.ar    1  UNL1       -0.2390
      9 C          63.4781   86.7234   15.8382 C.ar    1  UNL1        0.1210
     10 H          62.6233   88.8578   18.4580 H       1  UNL1        0.1675
     11 C          64.3313   90.2565   14.2446 C.ar    1  UNL1        0.1213
     12 N          65.3856   91.2970   14.4808 N.ar    1  UNL1       -0.1677
     13 N          65.5094   92.1227   13.2347 N.ar    1  UNL1       -0.2507
     14 C          64.5315   91.5925   12.2283 C.ar    1  UNL1        0.0816
     15 C          64.2101   92.0109   10.8242 C.ar    1  UNL1        0.0484
     16 C          63.1606   91.2760   10.0443 C.ar    1  UNL1        0.1416
     17 F          62.8391   91.6945    8.6401 F       1  UNL1       -0.2041
     18 C          62.4324   90.1226   10.6685 C.ar    1  UNL1        0.0298
     19 C          62.7539   89.7042   12.0726 C.ar    1  UNL1        0.0054
     20 C          63.8034   90.4391   12.8525 C.ar    1  UNL1        0.0383
     21 C          66.4465   93.2761   13.0307 C.3     1  UNL1        0.1293
     22 C          66.1308   94.3270   12.0081 C.3     1  UNL1        0.0516
     23 C          66.8071   94.2980   10.6695 C.3     1  UNL1        0.1530
     24 S          67.0308   95.5747    9.9145 S.O2    1  UNL1       -0.0082
     25 C          67.2545   96.8514    9.1595 C.3     1  UNL1        0.1760
     26 O          68.0290   94.8804    9.0362 O.2     1  UNL1       -0.1729
     27 O          66.0325   96.2690   10.7928 O.2     1  UNL1       -0.1729
     28 N          62.7463   83.7226   13.7419 N.am    1  UNL1       -0.3015
     29 C          63.8012   84.3911   14.5730 C.2     1  UNL1        0.2489
     30 O          65.2499   84.2232   14.2228 O.2     1  UNL1       -0.2700
     31 H          61.7954   83.8328   13.9717 H       1  UNL1        0.1497
     32 C          63.1680   84.1147   11.7002 C.3     1  UNL1        0.0222
     33 C          63.1404   82.8863   12.5607 C.3     1  UNL1        0.0841
     34 C          63.1128   81.6579   13.4212 C.3     1  UNL1        0.0222
     35 C          63.5345   82.0500   11.3796 C.3     1  UNL1        0.1549
     36 O          64.6180   82.5208   10.4552 O.3     1  UNL1       -0.3803
     37 H          64.3247   83.3231    9.9954 H       1  UNL1        0.2105
@<TRIPOS>BOND
     1    32    33    1
     2    33    34    1
     3    33    35    1
     4    35    36    1
     5    33    28    1
     6    28    29   am
     7    29    30    2
     8    29     1    1
     9     1     2   ar
    10     2     3   ar
    11     3     4   ar
    12     4     5   ar
    13     5     6   ar
    14     6     7   ar
    15     7    11    1
    16    11    12   ar
    17    12    13   ar
    18    13    21    1
    19    21    22    1
    20    22    23    1
    21    23    24    1
    22    24    25    1
    23    24    26    2
    24    24    27    2
    25    13    14   ar
    26    14    15   ar
    27    15    16   ar
    28    16    17    1
    29    16    18   ar
    30    18    19   ar
    31    19    20   ar
    32     7     8   ar
    33     8     9   ar
    34     9     1   ar
    35     9     4    1
    36    20    11   ar
    37    20    14   ar
    38    36    37    1
    39    28    31    1
    40     5    10    1
@<TRIPOS>MOLECULE
*****
 37 40 0 0 0
SMALL
GASTEIGER

@<TRIPOS>ATOM
      1 C          63.1471   87.9357   16.5055 C.ar    1  UNL1        0.0930
      2 C          62.9255   87.8490   17.9865 C.ar    1  UNL1        0.1067
      3 N          62.6709   86.4121   18.3336 N.ar    1  UNL1       -0.2252
      4 C          62.7351   85.6108   17.0672 C.ar    1  UNL1        0.1586
      5 N          62.5636   84.1454   16.7969 N.ar    1  UNL1       -0.3349
      6 C          62.6864   83.6216   15.3967 C.ar    1  UNL1        0.0945
      7 C          62.9807   84.5633   14.2668 C.ar    1  UNL1        0.1176
      8 N          63.1522   86.0287   14.5371 N.ar    1  UNL1       -0.2390
      9 C          63.0294   86.5525   15.9373 C.ar    1  UNL1        0.1210
     10 H          62.3704   83.5273   17.5385 H       1  UNL1        0.1675
     11 C          63.1035   84.0395   12.8666 C.ar    1  UNL1        0.1213
     12 N          63.3629   84.8599   11.6379 N.ar    1  UNL1       -0.1677
     13 N          63.4082   83.9309   10.4612 N.ar    1  UNL1       -0.2507
     14 C          63.1768   82.5362   10.9626 C.ar    1  UNL1        0.0816
     15 C          63.1132   81.2137   10.2576 C.ar    1  UNL1        0.0484
     16 C          62.8613   79.9585   11.0391 C.ar    1  UNL1        0.1416
     17 F          62.7977   78.6360   10.3340 F       1  UNL1       -0.2041
     18 C          62.6729   80.0256   12.5258 C.ar    1  UNL1        0.0298
     19 C          62.7365   81.3481   13.2308 C.ar    1  UNL1        0.0054
     20 C          62.9885   82.6033   12.4492 C.ar    1  UNL1        0.0383
     21 C          63.6436   84.3269    9.0337 C.3     1  UNL1        0.1293
     22 C          62.8469   85.4418    8.4236 C.3     1  UNL1        0.0516
     23 C          61.7019   86.0468    9.1804 C.3     1  UNL1        0.1530
     24 S          60.4420   86.4241    8.4592 S.O2    1  UNL1       -0.0082
     25 C          59.1821   86.8013    7.7377 C.3     1  UNL1        0.1760
     26 O          60.0390   87.2899    9.6157 O.2     1  UNL1       -0.1729
     27 O          60.8450   85.5582    7.3024 O.2     1  UNL1       -0.1729
     28 N          63.9970   89.0943   14.3408 N.am    1  UNL1       -0.3015
     29 C          63.4356   89.1862   15.7289 C.2     1  UNL1        0.2489
     30 O          63.1630   90.5285   16.3402 O.2     1  UNL1       -0.2700
     31 H          64.1759   88.2133   13.9395 H       1  UNL1        0.1497
     32 C          65.5080   90.5819   14.4005 C.3     1  UNL1        0.0222
     33 C          64.2855   90.3448   13.5642 C.3     1  UNL1        0.0841
     34 C          63.0631   90.1076   12.7280 C.3     1  UNL1        0.0222
     35 C          64.5741   91.5952   12.7877 C.3     1  UNL1        0.1549
     36 O          65.3400   92.7153   13.4272 O.3     1  UNL1       -0.3803
     37 H          64.8173   93.0917   14.1525 H       1  UNL1        0.2105
@<TRIPOS>BOND
     1    32    33    1
     2    33    34    1
     3    33    35    1
     4    35    36    1
     5    33    28    1
     6    28    29   am
     7    29    30    2
     8    29     1    1
     9     1     2   ar
    10     2     3   ar
    11     3     4   ar
    12     4     5   ar
    13     5     6   ar
    14     6     7   ar
    15     7    11    1
    16    11    12   ar
    17    12    13   ar
    18    13    21    1
    19    21    22    1
    20    22    23    1
    21    23    24    1
    22    24    25    1
    23    24    26    2
    24    24    27    2
    25    13    14   ar
    26    14    15   ar
    27    15    16   ar
    28    16    17    1
    29    16    18   ar
    30    18    19   ar
    31    19    20   ar
    32     7     8   ar
    33     8     9   ar
    34     9     1   ar
    35     9     4    1
    36    20    11   ar
    37    20    14   ar
    38    36    37    1
    39    28    31    1
    40     5    10    1
@<TRIPOS>MOLECULE
*****
 37 40 0 0 0
SMALL
GASTEIGER

@<TRIPOS>ATOM
      1 C          62.9434   83.7226   13.5287 C.ar    1  UNL1        0.0930
      2 C          62.7157   82.6676   14.5704 C.ar    1  UNL1        0.1067
      3 N          62.9006   83.2995   15.9181 N.ar    1  UNL1       -0.2252
      4 C          63.2426   84.7450   15.7094 C.ar    1  UNL1        0.1586
      5 N          63.5333   85.8569   16.6733 N.ar    1  UNL1       -0.3349
      6 C          63.8505   87.2303   16.1603 C.ar    1  UNL1        0.0945
      7 C          63.8770   87.4918   14.6836 C.ar    1  UNL1        0.1176
      8 N          63.5863   86.3799   13.7197 N.ar    1  UNL1       -0.2390
      9 C          63.2691   85.0065   14.2326 C.ar    1  UNL1        0.1210
     10 H          63.5159   85.6853   17.6425 H       1  UNL1        0.1675
     11 C          64.1942   88.8652   14.1706 C.ar    1  UNL1        0.1213
     12 N          65.0336   89.8946   14.8677 N.ar    1  UNL1       -0.1677
     13 N          65.0860   91.1160   13.9986 N.ar    1  UNL1       -0.2507
     14 C          64.2789   90.8415   12.7643 C.ar    1  UNL1        0.0816
     15 C          63.9746   91.6785   11.5573 C.ar    1  UNL1        0.0484
     16 C          63.1193   91.1245   10.4567 C.ar    1  UNL1        0.1416
     17 F          62.8150   91.9615    9.2497 F       1  UNL1       -0.2041
     18 C          62.5681   89.7334   10.5631 C.ar    1  UNL1        0.0298
     19 C          62.8724   88.8964   11.7701 C.ar    1  UNL1        0.0054
     20 C          63.7278   89.4505   12.8707 C.ar    1  UNL1        0.0383
     21 C          65.8170   92.3885   14.3091 C.3     1  UNL1        0.1293
     22 C          66.7313   92.9966   13.2873 C.3     1  UNL1        0.0516
     23 C          66.1686   93.8573   12.1952 C.3     1  UNL1        0.1530
     24 S          66.9230   94.0266   10.9098 S.O2    1  UNL1       -0.0082
     25 C          67.6773   94.1956    9.6244 C.3     1  UNL1        0.1760
     26 O          66.8882   95.5158   11.0853 O.2     1  UNL1       -0.1729
     27 O          66.9578   92.5372   10.7343 O.2     1  UNL1       -0.1729
     28 N          63.1520   84.6729   11.1196 N.am    1  UNL1       -0.3015
     29 C          62.8602   83.5279   12.0437 C.2     1  UNL1        0.2489
     30 O          62.4851   82.1883   11.4827 O.2     1  UNL1       -0.2700
     31 H          63.3982   85.5521   11.4877 H       1  UNL1        0.1497
     32 C          62.0288   85.5560    9.5517 C.3     1  UNL1        0.0222
     33 C          63.0688   84.4782    9.6346 C.3     1  UNL1        0.0841
     34 C          64.1087   83.4004    9.7176 C.3     1  UNL1        0.0222
     35 C          62.9855   84.2835    8.1497 C.3     1  UNL1        0.1549
     36 O          62.0450   85.1213    7.3349 O.3     1  UNL1       -0.3803
     37 H          61.1302   84.9096    7.5779 H       1  UNL1        0.2105
@<TRIPOS>BOND
     1    32    33    1
     2    33    34    1
     3    33    35    1
     4    35    36    1
     5    33    28    1
     6    28    29   am
     7    29    30    2
     8    29     1    1
     9     1     2   ar
    10     2     3   ar
    11     3     4   ar
    12     4     5   ar
    13     5     6   ar
    14     6     7   ar
    15     7    11    1
    16    11    12   ar
    17    12    13   ar
    18    13    21    1
    19    21    22    1
    20    22    23    1
    21    23    24    1
    22    24    25    1
    23    24    26    2
    24    24    27    2
    25    13    14   ar
    26    14    15   ar
    27    15    16   ar
    28    16    17    1
    29    16    18   ar
    30    18    19   ar
    31    19    20   ar
    32     7     8   ar
    33     8     9   ar
    34     9     1   ar
    35     9     4    1
    36    20    11   ar
    37    20    14   ar
    38    36    37    1
    39    28    31    1
    40     5    10    1
@<TRIPOS>MOLECULE
*****
 37 40 0 0 0
SMALL
GASTEIGER

@<TRIPOS>ATOM
      1 C          63.7175   83.1152   13.4243 C.ar    1  UNL1        0.0930
      2 C          64.1834   81.7228   13.1175 C.ar    1  UNL1        0.1067
      3 N          64.1591   81.5435   11.6284 N.ar    1  UNL1       -0.2252
      4 C          63.6781   82.8251   11.0150 C.ar    1  UNL1        0.1586
      5 N          63.4535   83.2330    9.5892 N.ar    1  UNL1       -0.3349
      6 C          62.9559   84.6124    9.2733 C.ar    1  UNL1        0.0945
      7 C          62.6829   85.5837   10.3832 C.ar    1  UNL1        0.1176
      8 N          62.9076   85.1758   11.8091 N.ar    1  UNL1       -0.2390
      9 C          63.4052   83.7964   12.1250 C.ar    1  UNL1        0.1210
     10 H          63.6326   82.5955    8.8607 H       1  UNL1        0.1675
     11 C          62.1853   86.9631   10.0673 C.ar    1  UNL1        0.1213
     12 N          62.6854   88.2410   10.6730 N.ar    1  UNL1       -0.1677
     13 N          61.9095   89.3745   10.0703 N.ar    1  UNL1       -0.2507
     14 C          60.9298   88.7970    9.0920 C.ar    1  UNL1        0.0816
     15 C          59.9045   89.4356    8.2027 C.ar    1  UNL1        0.0484
     16 C          59.0498   88.5841    7.3116 C.ar    1  UNL1        0.1416
     17 F          58.0244   89.2228    6.4223 F       1  UNL1       -0.2041
     18 C          59.2202   87.0937    7.3098 C.ar    1  UNL1        0.0298
     19 C          60.2455   86.4551    8.1991 C.ar    1  UNL1        0.0054
     20 C          61.1003   87.3067    9.0902 C.ar    1  UNL1        0.0383
     21 C          62.0827   90.8298   10.3896 C.3     1  UNL1        0.1293
     22 C          63.4562   91.3907   10.6109 C.3     1  UNL1        0.0516
     23 C          64.0502   91.3984   11.9882 C.3     1  UNL1        0.1530
     24 S          65.2147   92.2918   12.2978 S.O2    1  UNL1       -0.0082
     25 C          66.3792   93.1852   12.6072 C.3     1  UNL1        0.1760
     26 O          64.9865   92.0810   13.7652 O.2     1  UNL1       -0.1729
     27 O          65.4429   92.5026   10.8302 O.2     1  UNL1       -0.1729
     28 N          63.0429   85.1094   14.9470 N.am    1  UNL1       -0.3015
     29 C          63.5867   83.7201   14.7907 C.2     1  UNL1        0.2489
     30 O          63.9998   82.9360   16.0008 O.2     1  UNL1       -0.2700
     31 H          62.7717   85.6241   14.1527 H       1  UNL1        0.1497
     32 C          61.5034   85.2070   16.4031 C.3     1  UNL1        0.0222
     33 C          62.9121   85.7143   16.3133 C.3     1  UNL1        0.0841
     34 C          64.3209   86.2216   16.2235 C.3     1  UNL1        0.0222
     35 C          62.7814   86.3193   17.6796 C.3     1  UNL1        0.1549
     36 O          62.9591   87.7971   17.8657 O.3     1  UNL1       -0.3803
     37 H          63.8771   88.0398   17.6680 H       1  UNL1        0.2105
@<TRIPOS>BOND
     1    32    33    1
     2    33    34    1
     3    33    35    1
     4    35    36    1
     5    33    28    1
     6    28    29   am
     7    29    30    2
     8    29     1    1
     9     1     2   ar
    10     2     3   ar
    11     3     4   ar
    12     4     5   ar
    13     5     6   ar
    14     6     7   ar
    15     7    11    1
    16    11    12   ar
    17    12    13   ar
    18    13    21    1
    19    21    22    1
    20    22    23    1
    21    23    24    1
    22    24    25    1
    23    24    26    2
    24    24    27    2
    25    13    14   ar
    26    14    15   ar
    27    15    16   ar
    28    16    17    1
    29    16    18   ar
    30    18    19   ar
    31    19    20   ar
    32     7     8   ar
    33     8     9   ar
    34     9     1   ar
    35     9     4    1
    36    20    11   ar
    37    20    14   ar
    38    36    37    1
    39    28    31    1
    40     5    10    1
