@<TRIPOS>MOLECULE
*****
 31 32 0 0 0
SMALL
GASTEIGER

@<TRIPOS>ATOM
      1 C          63.6035   88.4550   13.2038 C.ar    1  UNL1        0.0628
      2 C          62.8203   88.2890   11.9354 C.ar    1  UNL1        0.0339
      3 C          62.4178   86.9189   11.4762 C.ar    1  UNL1        0.0848
      4 N          62.7986   85.7147   12.2855 N.ar    1  UNL1       -0.2178
      5 C          63.5818   85.8807   13.5540 C.ar    1  UNL1        0.2327
      6 N          63.9842   87.2508   14.0131 N.ar    1  UNL1       -0.2222
      7 C          61.6346   86.7529   10.2077 C.ar    1  UNL1        0.0177
      8 C          60.3211   87.4575   10.0397 C.ar    1  UNL1        0.0015
      9 C          59.5378   87.2916    8.7713 C.ar    1  UNL1       -0.0000
     10 C          60.0681   86.4210    7.6707 C.ar    1  UNL1        0.0039
     11 C          61.3817   85.7165    7.8387 C.ar    1  UNL1        0.0715
     12 C          62.1649   85.8824    9.1073 C.ar    1  UNL1        0.0053
     13 C          61.9120   84.8460    6.7383 C.3     1  UNL1        0.4186
     14 F          62.4423   83.9755    5.6379 F       1  UNL1       -0.1659
     15 F          60.5091   84.5360    6.3074 F       1  UNL1       -0.1659
     16 F          63.3149   85.1559    7.1692 F       1  UNL1       -0.1659
     17 C          63.9626   84.6765   14.3634 C.1     1  UNL1        0.1399
     18 N          64.3434   83.4724   15.1727 N.1     1  UNL1       -0.1876
     19 C          64.0059   89.8251   13.6629 C.3     1  UNL1        0.0474
     20 C          63.9885   90.9743   12.6991 C.3     1  UNL1        0.0234
     21 C          65.1116   91.9686   12.6972 C.3     1  UNL1        0.0692
     22 N          65.5657   92.5895   13.9850 N.3     1  UNL1       -0.2927
     23 H          65.3632   93.5870   13.9185 H       1  UNL1        0.1236
     24 C          66.5945   92.7155   15.8359 C.3     1  UNL1        0.0251
     25 C          66.9981   92.4661   14.4129 C.3     1  UNL1        0.1114
     26 C          67.4017   92.2168   12.9899 C.3     1  UNL1        0.0251
     27 C          68.4305   92.3427   14.8408 C.2     1  UNL1        0.2319
     28 N          69.4998   92.0939   13.8186 N.am    1  UNL1       -0.3278
     29 O          68.7936   92.4682   16.2907 O.2     1  UNL1       -0.2740
     30 H          69.2615   92.0116   12.8670 H       1  UNL1        0.1450
     31 H          70.4399   92.0129   14.0994 H       1  UNL1        0.1450
@<TRIPOS>BOND
     1    24    25    1
     2    25    26    1
     3    25    22    1
     4    22    21    1
     5    21    20    1
     6    20    19    1
     7    19     1    1
     8     1     2   ar
     9     2     3   ar
    10     3     7    1
    11     7     8   ar
    12     8     9   ar
    13     9    10   ar
    14    10    11   ar
    15    11    13    1
    16    13    14    1
    17    13    15    1
    18    13    16    1
    19    11    12   ar
    20     3     4   ar
    21     4     5   ar
    22     5    17    1
    23    17    18    3
    24     5     6   ar
    25    25    27    1
    26    27    28   am
    27    27    29    2
    28     6     1   ar
    29    12     7   ar
    30    22    23    1
    31    28    30    1
    32    28    31    1
@<TRIPOS>MOLECULE
*****
 31 32 0 0 0
SMALL
GASTEIGER

@<TRIPOS>ATOM
      1 C          63.8683   91.0512   12.1597 C.ar    1  UNL1        0.0628
      2 C          63.5319   89.8768   13.0301 C.ar    1  UNL1        0.0339
      3 C          64.2358   89.6891   14.3413 C.ar    1  UNL1        0.0848
      4 N          65.2761   90.6757   14.7821 N.ar    1  UNL1       -0.2178
      5 C          65.6125   91.8500   13.9117 C.ar    1  UNL1        0.2327
      6 N          64.9086   92.0378   12.6005 N.ar    1  UNL1       -0.2222
      7 C          63.8994   88.5146   15.2117 C.ar    1  UNL1        0.0177
      8 C          63.2354   88.7308   16.5393 C.ar    1  UNL1        0.0015
      9 C          62.8990   87.5565   17.4097 C.ar    1  UNL1       -0.0000
     10 C          63.2265   86.1658   16.9525 C.ar    1  UNL1        0.0039
     11 C          63.8904   85.9496   15.6250 C.ar    1  UNL1        0.0715
     12 C          64.2268   87.1241   14.7545 C.ar    1  UNL1        0.0053
     13 C          64.2179   84.5591   15.1678 C.3     1  UNL1        0.4186
     14 F          64.5453   83.1685   14.7106 F       1  UNL1       -0.1659
     15 F          65.4988   85.0580   14.5676 F       1  UNL1       -0.1659
     16 F          62.9369   84.0601   15.7680 F       1  UNL1       -0.1659
     17 C          66.6528   92.8367   14.3525 C.1     1  UNL1        0.1399
     18 N          67.6931   93.8234   14.7933 N.1     1  UNL1       -0.1876
     19 C          63.1644   91.2389   10.8485 C.3     1  UNL1        0.0474
     20 C          62.6626   90.0467   10.0891 C.3     1  UNL1        0.0234
     21 C          61.1961   89.7319   10.0710 C.3     1  UNL1        0.0692
     22 N          60.7267   88.3300   10.3250 N.3     1  UNL1       -0.2927
     23 H          61.4437   87.8776   10.8921 H       1  UNL1        0.1236
     24 C          59.7417   88.5290    8.4568 C.3     1  UNL1        0.0251
     25 C          60.4443   87.4132    9.1719 C.3     1  UNL1        0.1114
     26 C          61.1469   86.2974    9.8870 C.3     1  UNL1        0.0251
     27 C          60.1619   86.4964    8.0188 C.2     1  UNL1        0.2319
     28 N          58.7852   86.4391    7.4258 N.am    1  UNL1       -0.3278
     29 O          61.2561   85.6368    7.4586 O.2     1  UNL1       -0.2740
     30 H          58.0670   87.0033    7.7935 H       1  UNL1        0.1450
     31 H          58.5998   85.8374    6.6690 H       1  UNL1        0.1450
@<TRIPOS>BOND
     1    24    25    1
     2    25    26    1
     3    25    22    1
     4    22    21    1
     5    21    20    1
     6    20    19    1
     7    19     1    1
     8     1     2   ar
     9     2     3   ar
    10     3     7    1
    11     7     8   ar
    12     8     9   ar
    13     9    10   ar
    14    10    11   ar
    15    11    13    1
    16    13    14    1
    17    13    15    1
    18    13    16    1
    19    11    12   ar
    20     3     4   ar
    21     4     5   ar
    22     5    17    1
    23    17    18    3
    24     5     6   ar
    25    25    27    1
    26    27    28   am
    27    27    29    2
    28     6     1   ar
    29    12     7   ar
    30    22    23    1
    31    28    30    1
    32    28    31    1
@<TRIPOS>MOLECULE
*****
 31 32 0 0 0
SMALL
GASTEIGER

@<TRIPOS>ATOM
      1 C          62.2424   88.8840   11.2825 C.ar    1  UNL1        0.0628
      2 C          62.8061   87.6538   11.9297 C.ar    1  UNL1        0.0339
      3 C          62.3192   86.2974   11.5137 C.ar    1  UNL1        0.0848
      4 N          61.2686   86.1711   10.4506 N.ar    1  UNL1       -0.2178
      5 C          60.7049   87.4013    9.8035 C.ar    1  UNL1        0.2327
      6 N          61.1918   88.7578   10.2195 N.ar    1  UNL1       -0.2222
      7 C          62.8830   85.0671   12.1609 C.ar    1  UNL1        0.0177
      8 C          63.6676   85.1820   13.4341 C.ar    1  UNL1        0.0015
      9 C          64.2314   83.9519   14.0813 C.ar    1  UNL1       -0.0000
     10 C          64.0105   82.6067   13.4553 C.ar    1  UNL1        0.0039
     11 C          63.2258   82.4918   12.1820 C.ar    1  UNL1        0.0715
     12 C          62.6620   83.7221   11.5348 C.ar    1  UNL1        0.0053
     13 C          63.0049   81.1468   11.5560 C.3     1  UNL1        0.4186
     14 F          62.7840   79.8017   10.9299 F       1  UNL1       -0.1659
     15 F          62.3410   80.6704   12.8138 F       1  UNL1       -0.1659
     16 F          63.6688   81.6232   10.2981 F       1  UNL1       -0.1659
     17 C          59.6542   87.2752    8.7404 C.1     1  UNL1        0.1399
     18 N          58.6035   87.1490    7.6773 N.1     1  UNL1       -0.1876
     19 C          62.7294   90.2404   11.6985 C.3     1  UNL1        0.0474
     20 C          63.4238   91.1249   10.7059 C.3     1  UNL1        0.0234
     21 C          64.5828   91.9728   11.1390 C.3     1  UNL1        0.0692
     22 N          64.8094   92.2454   12.5965 N.3     1  UNL1       -0.2927
     23 H          64.5840   93.2281   12.7509 H       1  UNL1        0.1236
     24 C          65.5234   91.2764   14.3433 C.3     1  UNL1        0.0251
     25 C          66.1617   92.0111   13.2020 C.3     1  UNL1        0.1114
     26 C          66.8000   92.7459   12.0606 C.3     1  UNL1        0.0251
     27 C          67.5140   91.7769   13.8074 C.2     1  UNL1        0.2319
     28 N          68.7262   91.6976   12.9273 N.am    1  UNL1       -0.3278
     29 O          67.6541   91.6219   15.2927 O.2     1  UNL1       -0.2740
     30 H          68.6342   91.7993   11.9524 H       1  UNL1        0.1450
     31 H          69.6137   91.5439   13.3247 H       1  UNL1        0.1450
@<TRIPOS>BOND
     1    24    25    1
     2    25    26    1
     3    25    22    1
     4    22    21    1
     5    21    20    1
     6    20    19    1
     7    19     1    1
     8     1     2   ar
     9     2     3   ar
    10     3     7    1
    11     7     8   ar
    12     8     9   ar
    13     9    10   ar
    14    10    11   ar
    15    11    13    1
    16    13    14    1
    17    13    15    1
    18    13    16    1
    19    11    12   ar
    20     3     4   ar
    21     4     5   ar
    22     5    17    1
    23    17    18    3
    24     5     6   ar
    25    25    27    1
    26    27    28   am
    27    27    29    2
    28     6     1   ar
    29    12     7   ar
    30    22    23    1
    31    28    30    1
    32    28    31    1
@<TRIPOS>MOLECULE
*****
 31 32 0 0 0
SMALL
GASTEIGER

@<TRIPOS>ATOM
      1 C          63.9080   88.0412   13.6834 C.ar    1  UNL1        0.0628
      2 C          63.1240   88.0167   12.4048 C.ar    1  UNL1        0.0339
      3 C          62.5988   86.7167   11.8719 C.ar    1  UNL1        0.0848
      4 N          62.8575   85.4411   12.6176 N.ar    1  UNL1       -0.2178
      5 C          63.6414   85.4657   13.8961 C.ar    1  UNL1        0.2327
      6 N          64.1667   86.7657   14.4290 N.ar    1  UNL1       -0.2222
      7 C          61.8147   86.6922   10.5933 C.ar    1  UNL1        0.0177
      8 C          60.5557   87.4982   10.4700 C.ar    1  UNL1        0.0015
      9 C          59.7717   87.4737    9.1915 C.ar    1  UNL1       -0.0000
     10 C          60.2467   86.6433    8.0361 C.ar    1  UNL1        0.0039
     11 C          61.5058   85.8374    8.1594 C.ar    1  UNL1        0.0715
     12 C          62.2898   85.8618    9.4380 C.ar    1  UNL1        0.0053
     13 C          61.9809   85.0070    7.0041 C.3     1  UNL1        0.4186
     14 F          62.4560   84.1766    5.8488 F       1  UNL1       -0.1659
     15 F          63.3979   85.1740    7.4667 F       1  UNL1       -0.1659
     16 F          60.5639   84.8399    6.5414 F       1  UNL1       -0.1659
     17 C          63.9002   84.1901   14.6418 C.1     1  UNL1        0.1399
     18 N          64.1589   82.9146   15.3875 N.1     1  UNL1       -0.1876
     19 C          64.4332   89.3413   14.2163 C.3     1  UNL1        0.0474
     20 C          63.7646   90.6305   13.8412 C.3     1  UNL1        0.0234
     21 C          64.2650   91.4217   12.6691 C.3     1  UNL1        0.0692
     22 N          65.0595   92.6740   12.8938 N.3     1  UNL1       -0.2927
     23 H          64.4260   93.3529   13.3158 H       1  UNL1        0.1236
     24 C          65.0631   92.3994   10.7903 C.3     1  UNL1        0.0251
     25 C          65.7209   93.3605   11.7356 C.3     1  UNL1        0.1114
     26 C          66.3788   94.3215   12.6810 C.3     1  UNL1        0.0251
     27 C          66.3823   94.0470   10.5775 C.2     1  UNL1        0.2319
     28 N          65.6365   95.0891    9.7978 N.am    1  UNL1       -0.3278
     29 O          67.7895   93.6914   10.1990 O.2     1  UNL1       -0.2740
     30 H          64.7128   95.3224   10.0463 H       1  UNL1        0.1450
     31 H          66.0705   95.5396    9.0377 H       1  UNL1        0.1450
@<TRIPOS>BOND
     1    24    25    1
     2    25    26    1
     3    25    22    1
     4    22    21    1
     5    21    20    1
     6    20    19    1
     7    19     1    1
     8     1     2   ar
     9     2     3   ar
    10     3     7    1
    11     7     8   ar
    12     8     9   ar
    13     9    10   ar
    14    10    11   ar
    15    11    13    1
    16    13    14    1
    17    13    15    1
    18    13    16    1
    19    11    12   ar
    20     3     4   ar
    21     4     5   ar
    22     5    17    1
    23    17    18    3
    24     5     6   ar
    25    25    27    1
    26    27    28   am
    27    27    29    2
    28     6     1   ar
    29    12     7   ar
    30    22    23    1
    31    28    30    1
    32    28    31    1
@<TRIPOS>MOLECULE
*****
 31 32 0 0 0
SMALL
GASTEIGER

@<TRIPOS>ATOM
      1 C          63.8757   86.5761   13.9089 C.ar    1  UNL1        0.0628
      2 C          63.0654   86.2566   12.6877 C.ar    1  UNL1        0.0339
      3 C          62.6282   87.3582   11.7683 C.ar    1  UNL1        0.0848
      4 N          63.0011   88.7794   12.0702 N.ar    1  UNL1       -0.2178
      5 C          63.8114   89.0989   13.2913 C.ar    1  UNL1        0.2327
      6 N          64.2487   87.9972   14.2107 N.ar    1  UNL1       -0.2222
      7 C          61.8179   87.0386   10.5471 C.ar    1  UNL1        0.0177
      8 C          60.4145   87.5534   10.4223 C.ar    1  UNL1        0.0015
      9 C          59.6042   87.2338    9.2012 C.ar    1  UNL1       -0.0000
     10 C          60.1973   86.3995    8.1047 C.ar    1  UNL1        0.0039
     11 C          61.6006   85.8847    8.2294 C.ar    1  UNL1        0.0715
     12 C          62.4109   86.2043    9.4507 C.ar    1  UNL1        0.0053
     13 C          62.1937   85.0504    7.1330 C.3     1  UNL1        0.4186
     14 F          62.7868   84.2161    6.0367 F       1  UNL1       -0.1659
     15 F          63.5649   85.2919    7.6910 F       1  UNL1       -0.1659
     16 F          60.8225   84.8089    6.5751 F       1  UNL1       -0.1659
     17 C          64.1844   90.5201   13.5932 C.1     1  UNL1        0.1399
     18 N          64.5574   91.9412   13.8951 N.1     1  UNL1       -0.1876
     19 C          64.3129   85.4745   14.8282 C.3     1  UNL1        0.0474
     20 C          63.3194   84.8232   15.7440 C.3     1  UNL1        0.0234
     21 C          62.4277   83.7323   15.2293 C.3     1  UNL1        0.0692
     22 N          62.9675   82.3442   15.0503 N.3     1  UNL1       -0.2927
     23 H          63.9531   82.3757   15.3108 H       1  UNL1        0.1236
     24 C          61.5492   81.1177   14.0582 C.3     1  UNL1        0.0251
     25 C          62.8954   81.6789   13.7078 C.3     1  UNL1        0.1114
     26 C          64.2417   82.2401   13.3574 C.3     1  UNL1        0.0251
     27 C          62.8234   81.0135   12.3654 C.2     1  UNL1        0.2319
     28 N          63.0664   81.8117   11.1188 N.am    1  UNL1       -0.3278
     29 O          62.5084   79.5502   12.2696 O.2     1  UNL1       -0.2740
     30 H          63.2731   82.7721   11.1817 H       1  UNL1        0.1450
     31 H          63.0191   81.3750   10.2377 H       1  UNL1        0.1450
@<TRIPOS>BOND
     1    24    25    1
     2    25    26    1
     3    25    22    1
     4    22    21    1
     5    21    20    1
     6    20    19    1
     7    19     1    1
     8     1     2   ar
     9     2     3   ar
    10     3     7    1
    11     7     8   ar
    12     8     9   ar
    13     9    10   ar
    14    10    11   ar
    15    11    13    1
    16    13    14    1
    17    13    15    1
    18    13    16    1
    19    11    12   ar
    20     3     4   ar
    21     4     5   ar
    22     5    17    1
    23    17    18    3
    24     5     6   ar
    25    25    27    1
    26    27    28   am
    27    27    29    2
    28     6     1   ar
    29    12     7   ar
    30    22    23    1
    31    28    30    1
    32    28    31    1
@<TRIPOS>MOLECULE
*****
 31 32 0 0 0
SMALL
GASTEIGER

@<TRIPOS>ATOM
      1 C          64.0041   89.0324   13.7711 C.ar    1  UNL1        0.0628
      2 C          63.1038   88.5299   12.6817 C.ar    1  UNL1        0.0339
      3 C          62.8830   89.3570   11.4500 C.ar    1  UNL1        0.0848
      4 N          63.5626   90.6866   11.3077 N.ar    1  UNL1       -0.2178
      5 C          64.4629   91.1891   12.3971 C.ar    1  UNL1        0.2327
      6 N          64.6836   90.3620   13.6288 N.ar    1  UNL1       -0.2222
      7 C          61.9827   88.8544   10.3605 C.ar    1  UNL1        0.0177
      8 C          60.7777   89.6510    9.9563 C.ar    1  UNL1        0.0015
      9 C          59.8773   89.1485    8.8669 C.ar    1  UNL1       -0.0000
     10 C          60.1820   87.8493    8.1817 C.ar    1  UNL1        0.0039
     11 C          61.3870   87.0527    8.5859 C.ar    1  UNL1        0.0715
     12 C          62.2874   87.5553    9.6754 C.ar    1  UNL1        0.0053
     13 C          61.6917   85.7537    7.9007 C.3     1  UNL1        0.4186
     14 F          61.9964   84.4546    7.2156 F       1  UNL1       -0.1659
     15 F          60.2555   85.6366    7.4841 F       1  UNL1       -0.1659
     16 F          63.1279   85.8708    8.3174 F       1  UNL1       -0.1659
     17 C          65.1425   92.5188   12.2548 C.1     1  UNL1        0.1399
     18 N          65.8221   93.8484   12.1126 N.1     1  UNL1       -0.1876
     19 C          64.2248   88.2053   15.0029 C.3     1  UNL1        0.0474
     20 C          64.7596   86.8091   14.8829 C.3     1  UNL1        0.0234
     21 C          63.8544   85.6364   15.1182 C.3     1  UNL1        0.0692
     22 N          63.0320   85.0857   13.9911 N.3     1  UNL1       -0.2927
     23 H          62.1208   84.8453   14.3815 H       1  UNL1        0.1236
     24 C          63.0679   84.5183   11.9474 C.3     1  UNL1        0.0251
     25 C          63.5090   83.8828   13.2325 C.3     1  UNL1        0.1114
     26 C          63.9502   83.2474   14.5177 C.3     1  UNL1        0.0251
     27 C          63.9861   82.6799   12.4740 C.2     1  UNL1        0.2319
     28 N          63.7284   81.3034   13.0116 N.am    1  UNL1       -0.3278
     29 O          64.7209   82.8534   11.1779 O.2     1  UNL1       -0.2740
     30 H          63.2461   81.1896   13.8623 H       1  UNL1        0.1450
     31 H          64.0415   80.5139   12.5138 H       1  UNL1        0.1450
@<TRIPOS>BOND
     1    24    25    1
     2    25    26    1
     3    25    22    1
     4    22    21    1
     5    21    20    1
     6    20    19    1
     7    19     1    1
     8     1     2   ar
     9     2     3   ar
    10     3     7    1
    11     7     8   ar
    12     8     9   ar
    13     9    10   ar
    14    10    11   ar
    15    11    13    1
    16    13    14    1
    17    13    15    1
    18    13    16    1
    19    11    12   ar
    20     3     4   ar
    21     4     5   ar
    22     5    17    1
    23    17    18    3
    24     5     6   ar
    25    25    27    1
    26    27    28   am
    27    27    29    2
    28     6     1   ar
    29    12     7   ar
    30    22    23    1
    31    28    30    1
    32    28    31    1
@<TRIPOS>MOLECULE
*****
 31 32 0 0 0
SMALL
GASTEIGER

@<TRIPOS>ATOM
      1 C          61.5937   87.5316   10.0623 C.ar    1  UNL1        0.0628
      2 C          62.6445   88.5735   10.3078 C.ar    1  UNL1        0.0339
      3 C          62.3974   89.6678   11.3035 C.ar    1  UNL1        0.0848
      4 N          61.0996   89.7202   12.0537 N.ar    1  UNL1       -0.2178
      5 C          60.0488   88.6783   11.8082 C.ar    1  UNL1        0.2327
      6 N          60.2959   87.5840   10.8125 N.ar    1  UNL1       -0.2222
      7 C          63.4482   90.7097   11.5490 C.ar    1  UNL1        0.0177
      8 C          63.8156   91.6752   10.4613 C.ar    1  UNL1        0.0015
      9 C          64.8664   92.7171   10.7067 C.ar    1  UNL1       -0.0000
     10 C          65.5499   92.7935   12.0398 C.ar    1  UNL1        0.0039
     11 C          65.1825   91.8281   13.1275 C.ar    1  UNL1        0.0715
     12 C          64.1317   90.7861   12.8820 C.ar    1  UNL1        0.0053
     13 C          65.8659   91.9045   14.4605 C.3     1  UNL1        0.4186
     14 F          66.5494   91.9809   15.7935 F       1  UNL1       -0.1659
     15 F          66.1213   93.3669   14.2457 F       1  UNL1       -0.1659
     16 F          65.6106   90.4421   14.6753 F       1  UNL1       -0.1659
     17 C          58.7509   88.7307   12.5585 C.1     1  UNL1        0.1399
     18 N          57.4531   88.7830   13.3086 N.1     1  UNL1       -0.1876
     19 C          61.8408   86.4372    9.0666 C.3     1  UNL1        0.0474
     20 C          62.5770   85.1980    9.4814 C.3     1  UNL1        0.0234
     21 C          62.6251   84.8028   10.9276 C.3     1  UNL1        0.0692
     22 N          63.0677   83.4225   11.3137 N.3     1  UNL1       -0.2927
     23 H          62.4844   82.7693   10.7907 H       1  UNL1        0.1236
     24 C          62.9422   81.5586   12.3187 C.3     1  UNL1        0.0251
     25 C          63.0178   82.9932   12.7501 C.3     1  UNL1        0.1114
     26 C          63.0934   84.4279   13.1814 C.3     1  UNL1        0.0251
     27 C          62.9680   82.5639   14.1865 C.2     1  UNL1        0.2319
     28 N          61.9082   81.6075   14.6471 N.am    1  UNL1       -0.3278
     29 O          63.9780   83.0910   15.1622 O.2     1  UNL1       -0.2740
     30 H          61.2453   81.2616   14.0066 H       1  UNL1        0.1450
     31 H          61.8755   81.3257   15.5898 H       1  UNL1        0.1450
@<TRIPOS>BOND
     1    24    25    1
     2    25    26    1
     3    25    22    1
     4    22    21    1
     5    21    20    1
     6    20    19    1
     7    19     1    1
     8     1     2   ar
     9     2     3   ar
    10     3     7    1
    11     7     8   ar
    12     8     9   ar
    13     9    10   ar
    14    10    11   ar
    15    11    13    1
    16    13    14    1
    17    13    15    1
    18    13    16    1
    19    11    12   ar
    20     3     4   ar
    21     4     5   ar
    22     5    17    1
    23    17    18    3
    24     5     6   ar
    25    25    27    1
    26    27    28   am
    27    27    29    2
    28     6     1   ar
    29    12     7   ar
    30    22    23    1
    31    28    30    1
    32    28    31    1
@<TRIPOS>MOLECULE
*****
 31 32 0 0 0
SMALL
GASTEIGER

@<TRIPOS>ATOM
      1 C          63.0345   89.6416   12.3698 C.ar    1  UNL1        0.0628
      2 C          63.3984   88.2530   12.8047 C.ar    1  UNL1        0.0339
      3 C          62.8662   87.0683   12.0542 C.ar    1  UNL1        0.0848
      4 N          61.9702   87.2722   10.8687 N.ar    1  UNL1       -0.2178
      5 C          61.6062   88.6608   10.4338 C.ar    1  UNL1        0.2327
      6 N          62.1384   89.8455   11.1843 N.ar    1  UNL1       -0.2222
      7 C          63.2302   85.6796   12.4892 C.ar    1  UNL1        0.0177
      8 C          63.7655   85.4424   13.8702 C.ar    1  UNL1        0.0015
      9 C          64.1294   84.0538   14.3052 C.ar    1  UNL1       -0.0000
     10 C          63.9582   82.9023   13.3592 C.ar    1  UNL1        0.0039
     11 C          63.4229   83.1396   11.9782 C.ar    1  UNL1        0.0715
     12 C          63.0590   84.5282   11.5432 C.ar    1  UNL1        0.0053
     13 C          63.2517   81.9882   11.0322 C.3     1  UNL1        0.4186
     14 F          63.0804   80.8368   10.0862 F       1  UNL1       -0.1659
     15 F          62.7939   81.1227   12.1685 F       1  UNL1       -0.1659
     16 F          63.7095   82.8537    9.8959 F       1  UNL1       -0.1659
     17 C          60.7101   88.8648    9.2482 C.1     1  UNL1        0.1399
     18 N          59.8140   89.0688    8.0628 N.1     1  UNL1       -0.1876
     19 C          63.5666   90.8263   13.1203 C.3     1  UNL1        0.0474
     20 C          64.8636   91.4557   12.7061 C.3     1  UNL1        0.0234
     21 C          64.9631   92.1740   11.3931 C.3     1  UNL1        0.0692
     22 N          65.4248   93.6007   11.3517 N.3     1  UNL1       -0.2927
     23 H          64.6321   94.1576   11.0328 H       1  UNL1        0.1236
     24 C          66.1357   95.4130   10.5090 C.3     1  UNL1        0.0251
     25 C          66.5961   93.9854   10.4972 C.3     1  UNL1        0.1114
     26 C          67.0565   92.5579   10.4855 C.3     1  UNL1        0.0251
     27 C          67.7673   94.3702    9.6427 C.2     1  UNL1        0.2319
     28 N          67.7033   95.6060    8.7949 N.am    1  UNL1       -0.3278
     29 O          69.0024   93.5192    9.6359 O.2     1  UNL1       -0.2740
     30 H          66.8926   96.1646    8.7994 H       1  UNL1        0.1450
     31 H          68.4720   95.8586    8.2341 H       1  UNL1        0.1450
@<TRIPOS>BOND
     1    24    25    1
     2    25    26    1
     3    25    22    1
     4    22    21    1
     5    21    20    1
     6    20    19    1
     7    19     1    1
     8     1     2   ar
     9     2     3   ar
    10     3     7    1
    11     7     8   ar
    12     8     9   ar
    13     9    10   ar
    14    10    11   ar
    15    11    13    1
    16    13    14    1
    17    13    15    1
    18    13    16    1
    19    11    12   ar
    20     3     4   ar
    21     4     5   ar
    22     5    17    1
    23    17    18    3
    24     5     6   ar
    25    25    27    1
    26    27    28   am
    27    27    29    2
    28     6     1   ar
    29    12     7   ar
    30    22    23    1
    31    28    30    1
    32    28    31    1
@<TRIPOS>MOLECULE
*****
 31 32 0 0 0
SMALL
GASTEIGER

@<TRIPOS>ATOM
      1 C          62.1003   85.7423   11.5263 C.ar    1  UNL1        0.0628
      2 C          62.8090   87.0204   11.8643 C.ar    1  UNL1        0.0339
      3 C          62.4533   88.2879   11.1454 C.ar    1  UNL1        0.0848
      4 N          61.3890   88.2773   10.0885 N.ar    1  UNL1       -0.2178
      5 C          60.6803   86.9992    9.7505 C.ar    1  UNL1        0.2327
      6 N          61.0360   85.7317   10.4694 N.ar    1  UNL1       -0.2222
      7 C          63.1620   89.5660   11.4834 C.ar    1  UNL1        0.0177
      8 C          63.3822   90.6044   10.4235 C.ar    1  UNL1        0.0015
      9 C          64.0909   91.8825   10.7615 C.ar    1  UNL1       -0.0000
     10 C          64.5793   92.1223   12.1594 C.ar    1  UNL1        0.0039
     11 C          64.3591   91.0839   13.2192 C.ar    1  UNL1        0.0715
     12 C          63.6504   89.8058   12.8812 C.ar    1  UNL1        0.0053
     13 C          64.8475   91.3236   14.6170 C.3     1  UNL1        0.4186
     14 F          65.3359   91.5634   16.0148 F       1  UNL1       -0.1659
     15 F          63.5223   90.8742   15.1572 F       1  UNL1       -0.1659
     16 F          66.1727   91.7731   14.0769 F       1  UNL1       -0.1659
     17 C          59.6160   86.9886    8.6936 C.1     1  UNL1        0.1399
     18 N          58.5517   86.9780    7.6366 N.1     1  UNL1       -0.1876
     19 C          62.4560   84.4747   12.2453 C.3     1  UNL1        0.0474
     20 C          63.8769   83.9943   12.2601 C.3     1  UNL1        0.0234
     21 C          64.7230   84.1927   13.4827 C.3     1  UNL1        0.0692
     22 N          64.1293   83.9944   14.8459 N.3     1  UNL1       -0.2927
     23 H          63.3799   83.3099   14.7440 H       1  UNL1        0.1236
     24 C          64.7309   85.9989   15.1922 C.3     1  UNL1        0.0251
     25 C          63.5511   85.1620   15.5892 C.3     1  UNL1        0.1114
     26 C          62.3713   84.3250   15.9862 C.3     1  UNL1        0.0251
     27 C          62.9729   86.3296   16.3325 C.2     1  UNL1        0.2319
     28 N          63.5210   87.7077   16.1076 N.am    1  UNL1       -0.3278
     29 O          61.8466   86.1191   17.3005 O.2     1  UNL1       -0.2740
     30 H          64.2602   87.8458   15.4722 H       1  UNL1        0.1450
     31 H          63.1416   88.4740   16.5954 H       1  UNL1        0.1450
@<TRIPOS>BOND
     1    24    25    1
     2    25    26    1
     3    25    22    1
     4    22    21    1
     5    21    20    1
     6    20    19    1
     7    19     1    1
     8     1     2   ar
     9     2     3   ar
    10     3     7    1
    11     7     8   ar
    12     8     9   ar
    13     9    10   ar
    14    10    11   ar
    15    11    13    1
    16    13    14    1
    17    13    15    1
    18    13    16    1
    19    11    12   ar
    20     3     4   ar
    21     4     5   ar
    22     5    17    1
    23    17    18    3
    24     5     6   ar
    25    25    27    1
    26    27    28   am
    27    27    29    2
    28     6     1   ar
    29    12     7   ar
    30    22    23    1
    31    28    30    1
    32    28    31    1
