@<TRIPOS>MOLECULE
*****
 39 43 0 0 0
SMALL
GASTEIGER

@<TRIPOS>ATOM
      1 C          59.7691   94.0453   -3.2530 C.3     1  UNL1        0.1631
      2 N          59.7154   94.3515   -1.7855 N.ar    1  UNL1       -0.3047
      3 C          58.5305   94.8907   -1.0402 C.ar    1  UNL1        0.1441
      4 N          58.9199   95.0447    0.4001 N.ar    1  UNL1       -0.2267
      5 C          60.3453   94.6006    0.5450 C.ar    1  UNL1        0.1010
      6 C          61.2591   94.5310    1.7325 C.ar    1  UNL1        0.0526
      7 C          62.6646   94.0330    1.5691 C.ar    1  UNL1        0.1690
      8 F          63.5784   93.9634    2.7567 F       1  UNL1       -0.2017
      9 C          63.1562   93.6045    0.2183 C.ar    1  UNL1        0.1689
     10 F          64.5617   93.1065    0.0550 F       1  UNL1       -0.2017
     11 C          62.2424   93.6741   -0.9691 C.ar    1  UNL1        0.0507
     12 C          60.8369   94.1722   -0.8058 C.ar    1  UNL1        0.0816
     13 C          57.1915   95.2185   -1.6315 C.ar    1  UNL1        0.0342
     14 C          57.0313   96.4319   -2.4986 C.ar    1  UNL1        0.0039
     15 C          55.6923   96.7597   -3.0899 C.ar    1  UNL1        0.0115
     16 C          54.5136   95.8740   -2.8141 C.ar    1  UNL1        0.0577
     17 CL         53.1745   96.2017   -3.4055 Cl      1  UNL1       -0.0822
     18 C          54.6739   94.6605   -1.9471 C.ar    1  UNL1        0.0115
     19 C          56.0128   94.3327   -1.3558 C.ar    1  UNL1        0.0039
     20 C          58.5978   93.3943   -3.9267 C.3     1  UNL1        0.0297
     21 C          58.0260   92.1225   -3.3737 C.3     1  UNL1        0.0024
     22 C          56.8546   91.4716   -4.0475 C.3     1  UNL1        0.0001
     23 C          56.2549   92.0922   -5.2743 C.3     1  UNL1        0.0000
     24 C          56.8266   93.3640   -5.8274 C.3     1  UNL1        0.0001
     25 C          57.9980   94.0150   -5.1536 C.3     1  UNL1        0.0024
     26 N          62.2144   93.5220   -3.9580 N.am    1  UNL1       -0.2806
     27 C          60.9944   94.3901   -4.0467 C.2     1  UNL1        0.2469
     28 O          60.9995   95.6031   -4.9291 O.2     1  UNL1       -0.2727
     29 H          62.2110   92.7259   -3.3788 H       1  UNL1        0.1550
     30 C          65.8899   94.5566   -6.3393 C.ar    1  UNL1        0.0163
     31 C          65.1825   93.2557   -6.5790 C.ar    1  UNL1        0.0025
     32 C          63.9573   92.9109   -5.7851 C.ar    1  UNL1        0.0170
     33 C          63.4395   93.8669   -4.7517 C.ar    1  UNL1        0.0782
     34 C          64.1469   95.1677   -4.5121 C.ar    1  UNL1        0.1535
     35 F          63.6291   96.1237   -3.4787 F       1  UNL1       -0.2029
     36 C          65.3720   95.5125   -5.3059 C.ar    1  UNL1        0.0320
     37 O          67.3688   96.3223   -7.5413 O.co2   1  UNL1       -0.5446
     38 C          67.1150   94.9015   -7.1331 C.2     1  UNL1        0.0729
     39 O          68.0864   93.8254   -7.5185 O.co2   1  UNL1       -0.5446
@<TRIPOS>UNITY_ATOM_ATTR
37 1
charge -1
@<TRIPOS>BOND
     1    37    38   ar
     2    38    39   ar
     3    38    30    1
     4    30    31   ar
     5    31    32   ar
     6    32    33   ar
     7    33    26    1
     8    26    27   am
     9    27    28    2
    10    27     1    1
    11     1    20    1
    12    20    21    1
    13    21    22    1
    14    22    23    1
    15    23    24    1
    16    24    25    1
    17     1     2    1
    18     2     3   ar
    19     3    13    1
    20    13    14   ar
    21    14    15   ar
    22    15    16   ar
    23    16    17    1
    24    16    18   ar
    25    18    19   ar
    26     3     4   ar
    27     4     5   ar
    28     5     6   ar
    29     6     7   ar
    30     7     8    1
    31     7     9   ar
    32     9    10    1
    33     9    11   ar
    34    11    12   ar
    35    33    34   ar
    36    34    35    1
    37    34    36   ar
    38    36    30   ar
    39    25    20    1
    40    12     2   ar
    41    19    13   ar
    42    12     5   ar
    43    26    29    1
@<TRIPOS>MOLECULE
*****
 39 43 0 0 0
SMALL
GASTEIGER

@<TRIPOS>ATOM
      1 C          62.0406   88.3212   11.9933 C.3     1  UNL1        0.1631
      2 N          62.1656   86.9514   11.3951 N.ar    1  UNL1       -0.3047
      3 C          61.6250   86.5176   10.0648 C.ar    1  UNL1        0.1441
      4 N          61.9784   85.0729    9.8696 N.ar    1  UNL1       -0.2267
      5 C          62.7375   84.6140   11.0792 C.ar    1  UNL1        0.1010
      6 C          63.3383   83.2888   11.4440 C.ar    1  UNL1        0.0526
      7 C          64.0548   83.1247   12.7516 C.ar    1  UNL1        0.1690
      8 F          64.6556   81.7994   13.1163 F       1  UNL1       -0.2017
      9 C          64.1705   84.2856   13.6943 C.ar    1  UNL1        0.1689
     10 F          64.8871   84.1214   15.0019 F       1  UNL1       -0.2017
     11 C          63.5697   85.6107   13.3296 C.ar    1  UNL1        0.0507
     12 C          62.8532   85.7749   12.0220 C.ar    1  UNL1        0.0816
     13 C          60.8644   87.3775    9.0994 C.ar    1  UNL1        0.0342
     14 C          61.2227   88.8254    8.9415 C.ar    1  UNL1        0.0039
     15 C          60.4622   89.6853    7.9760 C.ar    1  UNL1        0.0115
     16 C          59.3434   89.0972    7.1684 C.ar    1  UNL1        0.0577
     17 CL         58.5828   89.9572    6.2029 Cl      1  UNL1       -0.0822
     18 C          58.9851   87.6493    7.3263 C.ar    1  UNL1        0.0115
     19 C          59.7455   86.7894    8.2917 C.ar    1  UNL1        0.0039
     20 C          60.7216   89.0347   11.9646 C.3     1  UNL1        0.0297
     21 C          59.4871   88.3498   12.4715 C.3     1  UNL1        0.0024
     22 C          58.1681   89.0633   12.4428 C.3     1  UNL1        0.0001
     23 C          58.0834   90.4619   11.9072 C.3     1  UNL1        0.0000
     24 C          59.3178   91.1469   11.4002 C.3     1  UNL1        0.0001
     25 C          60.6369   90.4333   11.4290 C.3     1  UNL1        0.0024
     26 N          63.5109   90.4303   12.3681 N.am    1  UNL1       -0.2806
     27 C          63.2349   88.9777   12.6203 C.2     1  UNL1        0.2469
     28 O          64.1531   88.1814   13.4995 O.2     1  UNL1       -0.2727
     29 H          62.9083   90.9530   11.7911 H       1  UNL1        0.1550
     30 C          67.0935   92.3993   14.2493 C.ar    1  UNL1        0.0163
     31 C          66.1946   91.5295   15.0773 C.ar    1  UNL1        0.0025
     32 C          65.0004   90.8731   14.4502 C.ar    1  UNL1        0.0170
     33 C          64.7050   91.0867   12.9951 C.ar    1  UNL1        0.0782
     34 C          65.6039   91.9564   12.1671 C.ar    1  UNL1        0.1535
     35 F          65.3085   92.1700   10.7121 F       1  UNL1       -0.2029
     36 C          66.7980   92.6127   12.7942 C.ar    1  UNL1        0.0320
     37 O          68.1030   94.0343   15.9979 O.co2   1  UNL1       -0.5446
     38 C          68.2876   93.0556   14.8763 C.2     1  UNL1        0.0729
     39 O          69.6665   92.7331   14.3817 O.co2   1  UNL1       -0.5446
@<TRIPOS>UNITY_ATOM_ATTR
37 1
charge -1
@<TRIPOS>BOND
     1    37    38   ar
     2    38    39   ar
     3    38    30    1
     4    30    31   ar
     5    31    32   ar
     6    32    33   ar
     7    33    26    1
     8    26    27   am
     9    27    28    2
    10    27     1    1
    11     1    20    1
    12    20    21    1
    13    21    22    1
    14    22    23    1
    15    23    24    1
    16    24    25    1
    17     1     2    1
    18     2     3   ar
    19     3    13    1
    20    13    14   ar
    21    14    15   ar
    22    15    16   ar
    23    16    17    1
    24    16    18   ar
    25    18    19   ar
    26     3     4   ar
    27     4     5   ar
    28     5     6   ar
    29     6     7   ar
    30     7     8    1
    31     7     9   ar
    32     9    10    1
    33     9    11   ar
    34    11    12   ar
    35    33    34   ar
    36    34    35    1
    37    34    36   ar
    38    36    30   ar
    39    25    20    1
    40    12     2   ar
    41    19    13   ar
    42    12     5   ar
    43    26    29    1
@<TRIPOS>MOLECULE
*****
 39 43 0 0 0
SMALL
GASTEIGER

@<TRIPOS>ATOM
      1 C          57.7960   94.3735   -4.0110 C.3     1  UNL1        0.1631
      2 N          56.7689   94.7310   -2.9779 N.ar    1  UNL1       -0.3047
      3 C          56.9378   94.6200   -1.4915 C.ar    1  UNL1        0.1441
      4 N          55.6659   95.0826   -0.8448 N.ar    1  UNL1       -0.2267
      5 C          54.7110   95.4795   -1.9314 C.ar    1  UNL1        0.1010
      6 C          53.3089   96.0107   -1.8907 C.ar    1  UNL1        0.0526
      7 C          52.5884   96.3246   -3.1684 C.ar    1  UNL1        0.1690
      8 F          51.1861   96.8558   -3.1277 F       1  UNL1       -0.2017
      9 C          53.2701   96.1073   -4.4867 C.ar    1  UNL1        0.1689
     10 F          52.5496   96.4212   -5.7644 F       1  UNL1       -0.2017
     11 C          54.6723   95.5761   -4.5274 C.ar    1  UNL1        0.0507
     12 C          55.3927   95.2622   -3.2497 C.ar    1  UNL1        0.0816
     13 C          58.1633   94.1320   -0.7774 C.ar    1  UNL1        0.0342
     14 C          58.9505   95.0706    0.0882 C.ar    1  UNL1        0.0039
     15 C          60.1760   94.5827    0.8024 C.ar    1  UNL1        0.0115
     16 C          60.6143   93.1562    0.6509 C.ar    1  UNL1        0.0577
     17 CL         61.8399   92.6683    1.3651 Cl      1  UNL1       -0.0822
     18 C          59.8271   92.2176   -0.2147 C.ar    1  UNL1        0.0115
     19 C          58.6016   92.7055   -0.9289 C.ar    1  UNL1        0.0039
     20 C          57.4533   93.4083   -5.1068 C.3     1  UNL1        0.0297
     21 C          56.4936   92.2857   -4.8445 C.3     1  UNL1        0.0024
     22 C          56.1509   91.3206   -5.9404 C.3     1  UNL1        0.0001
     23 C          56.7678   91.4780   -7.2986 C.3     1  UNL1        0.0000
     24 C          57.7275   92.6006   -7.5609 C.3     1  UNL1        0.0001
     25 C          58.0702   93.5658   -6.4650 C.3     1  UNL1        0.0024
     26 N          60.3618   94.1110   -3.6977 N.am    1  UNL1       -0.2806
     27 C          59.1660   94.9813   -3.9482 C.2     1  UNL1        0.2469
     28 O          59.3402   96.4592   -4.1359 O.2     1  UNL1       -0.2727
     29 H          60.2476   93.1409   -3.5745 H       1  UNL1        0.1550
     30 C          64.4716   95.9344   -3.5094 C.ar    1  UNL1        0.0163
     31 C          63.7723   95.5289   -2.2458 C.ar    1  UNL1        0.0025
     32 C          62.4023   94.9211   -2.3086 C.ar    1  UNL1        0.0170
     33 C          61.7317   94.7188   -3.6350 C.ar    1  UNL1        0.0782
     34 C          62.4310   95.1243   -4.8986 C.ar    1  UNL1        0.1535
     35 F          61.7603   94.9219   -6.2250 F       1  UNL1       -0.2029
     36 C          63.8008   95.7320   -4.8357 C.ar    1  UNL1        0.0320
     37 O          66.4711   96.8370   -2.1175 O.co2   1  UNL1       -0.5446
     38 C          65.8414   96.5422   -3.4466 C.2     1  UNL1        0.0729
     39 O          66.5817   96.8552   -4.7131 O.co2   1  UNL1       -0.5446
@<TRIPOS>UNITY_ATOM_ATTR
37 1
charge -1
@<TRIPOS>BOND
     1    37    38   ar
     2    38    39   ar
     3    38    30    1
     4    30    31   ar
     5    31    32   ar
     6    32    33   ar
     7    33    26    1
     8    26    27   am
     9    27    28    2
    10    27     1    1
    11     1    20    1
    12    20    21    1
    13    21    22    1
    14    22    23    1
    15    23    24    1
    16    24    25    1
    17     1     2    1
    18     2     3   ar
    19     3    13    1
    20    13    14   ar
    21    14    15   ar
    22    15    16   ar
    23    16    17    1
    24    16    18   ar
    25    18    19   ar
    26     3     4   ar
    27     4     5   ar
    28     5     6   ar
    29     6     7   ar
    30     7     8    1
    31     7     9   ar
    32     9    10    1
    33     9    11   ar
    34    11    12   ar
    35    33    34   ar
    36    34    35    1
    37    34    36   ar
    38    36    30   ar
    39    25    20    1
    40    12     2   ar
    41    19    13   ar
    42    12     5   ar
    43    26    29    1
@<TRIPOS>MOLECULE
*****
 39 43 0 0 0
SMALL
GASTEIGER

@<TRIPOS>ATOM
      1 C          62.9874   84.9789   12.1662 C.3     1  UNL1        0.1631
      2 N          62.8521   83.6503   12.8493 N.ar    1  UNL1       -0.3047
      3 C          62.7136   83.4284   14.3263 C.ar    1  UNL1        0.1441
      4 N          62.6075   81.9514   14.5652 N.ar    1  UNL1       -0.2267
      5 C          62.6804   81.2605   13.2358 C.ar    1  UNL1        0.1010
      6 C          62.6286   79.8108   12.8538 C.ar    1  UNL1        0.0526
      7 C          62.7281   79.4112   11.4115 C.ar    1  UNL1        0.1690
      8 F          62.6763   77.9615   11.0296 F       1  UNL1       -0.2017
      9 C          62.8793   80.4612   10.3510 C.ar    1  UNL1        0.1689
     10 F          62.9787   80.0616    8.9086 F       1  UNL1       -0.2017
     11 C          62.9310   81.9108   10.7329 C.ar    1  UNL1        0.0507
     12 C          62.8316   82.3105   12.1753 C.ar    1  UNL1        0.0816
     13 C          62.6861   84.4961   15.3795 C.ar    1  UNL1        0.0342
     14 C          63.9373   84.8395   16.1322 C.ar    1  UNL1        0.0039
     15 C          63.9098   85.9072   17.1854 C.ar    1  UNL1        0.0115
     16 C          62.6312   86.6314   17.4859 C.ar    1  UNL1        0.0577
     17 CL         62.6037   87.6992   18.5392 Cl      1  UNL1       -0.0822
     18 C          61.3800   86.2880   16.7333 C.ar    1  UNL1        0.0115
     19 C          61.4074   85.2204   15.6801 C.ar    1  UNL1        0.0039
     20 C          62.5482   85.1376   10.7409 C.3     1  UNL1        0.0297
     21 C          61.2397   85.8012   10.4286 C.3     1  UNL1        0.0024
     22 C          60.8006   85.9599    9.0032 C.3     1  UNL1        0.0001
     23 C          61.6699   85.4551    7.8899 C.3     1  UNL1        0.0000
     24 C          62.9784   84.7914    8.2020 C.3     1  UNL1        0.0001
     25 C          63.4176   84.6327    9.6275 C.3     1  UNL1        0.0024
     26 N          63.0283   87.5289   12.6623 N.am    1  UNL1       -0.2806
     27 C          63.5620   86.1489   12.9087 C.2     1  UNL1        0.2469
     28 O          64.6703   85.9388   13.8974 O.2     1  UNL1       -0.2727
     29 H          62.3009   87.6669   12.0134 H       1  UNL1        0.1550
     30 C          64.7521   91.0385   14.8898 C.ar    1  UNL1        0.0163
     31 C          64.4861   89.7502   15.6104 C.ar    1  UNL1        0.0025
     32 C          63.9114   88.5803   14.8679 C.ar    1  UNL1        0.0170
     33 C          63.6029   88.6988   13.4047 C.ar    1  UNL1        0.0782
     34 C          63.8689   89.9872   12.6841 C.ar    1  UNL1        0.1535
     35 F          63.5603   90.1057   11.2210 F       1  UNL1       -0.2029
     36 C          64.4435   91.1570   13.4266 C.ar    1  UNL1        0.0320
     37 O          66.4551   92.9953   15.0344 O.co2   1  UNL1       -0.5446
     38 C          65.3267   92.2084   15.6322 C.2     1  UNL1        0.0729
     39 O          64.7728   92.5914   16.9726 O.co2   1  UNL1       -0.5446
@<TRIPOS>UNITY_ATOM_ATTR
37 1
charge -1
@<TRIPOS>BOND
     1    37    38   ar
     2    38    39   ar
     3    38    30    1
     4    30    31   ar
     5    31    32   ar
     6    32    33   ar
     7    33    26    1
     8    26    27   am
     9    27    28    2
    10    27     1    1
    11     1    20    1
    12    20    21    1
    13    21    22    1
    14    22    23    1
    15    23    24    1
    16    24    25    1
    17     1     2    1
    18     2     3   ar
    19     3    13    1
    20    13    14   ar
    21    14    15   ar
    22    15    16   ar
    23    16    17    1
    24    16    18   ar
    25    18    19   ar
    26     3     4   ar
    27     4     5   ar
    28     5     6   ar
    29     6     7   ar
    30     7     8    1
    31     7     9   ar
    32     9    10    1
    33     9    11   ar
    34    11    12   ar
    35    33    34   ar
    36    34    35    1
    37    34    36   ar
    38    36    30   ar
    39    25    20    1
    40    12     2   ar
    41    19    13   ar
    42    12     5   ar
    43    26    29    1
@<TRIPOS>MOLECULE
*****
 39 43 0 0 0
SMALL
GASTEIGER

@<TRIPOS>ATOM
      1 C          63.0738   88.9878   12.3749 C.3     1  UNL1        0.1631
      2 N          63.9387   89.9869   13.0846 N.ar    1  UNL1       -0.3047
      3 C          64.3051   89.9603   14.5389 C.ar    1  UNL1        0.1441
      4 N          65.1820   91.1450   14.8177 N.ar    1  UNL1       -0.2267
      5 C          65.3575   91.9036   13.5357 C.ar    1  UNL1        0.1010
      6 C          66.1178   93.1537   13.2053 C.ar    1  UNL1        0.0526
      7 C          66.1097   93.6881   11.8037 C.ar    1  UNL1        0.1690
      8 F          66.8700   94.9383   11.4733 F       1  UNL1       -0.2017
      9 C          65.3414   92.9724   10.7326 C.ar    1  UNL1        0.1689
     10 F          65.3333   93.5069    9.3310 F       1  UNL1       -0.2017
     11 C          64.5811   91.7223   11.0630 C.ar    1  UNL1        0.0507
     12 C          64.5892   91.1879   12.4645 C.ar    1  UNL1        0.0816
     13 C          63.8708   88.9300   15.5388 C.ar    1  UNL1        0.0342
     14 C          63.0730   89.3409   16.7408 C.ar    1  UNL1        0.0039
     15 C          62.6387   88.3106   17.7407 C.ar    1  UNL1        0.0115
     16 C          63.0022   86.8695   17.5387 C.ar    1  UNL1        0.0577
     17 CL         62.5678   85.8392   18.5387 Cl      1  UNL1       -0.0822
     18 C          63.8000   86.4586   16.3368 C.ar    1  UNL1        0.0115
     19 C          64.2343   87.4888   15.3369 C.ar    1  UNL1        0.0039
     20 C          61.9872   89.4570   11.4535 C.3     1  UNL1        0.0297
     21 C          60.7652   90.1233   12.0127 C.3     1  UNL1        0.0024
     22 C          59.6786   90.5924   11.0912 C.3     1  UNL1        0.0001
     23 C          59.8139   90.3953    9.6104 C.3     1  UNL1        0.0000
     24 C          61.0359   89.7290    9.0511 C.3     1  UNL1        0.0001
     25 C          62.1225   89.2598    9.9726 C.3     1  UNL1        0.0024
     26 N          62.2474   86.5338   12.1620 N.am    1  UNL1       -0.2806
     27 C          63.2954   87.5194   12.5867 C.2     1  UNL1        0.2469
     28 O          64.5650   87.0367   13.2231 O.2     1  UNL1       -0.2727
     29 H          61.4141   86.8506   11.7443 H       1  UNL1        0.1550
     30 C          62.9126   82.1288   12.7976 C.ar    1  UNL1        0.0163
     31 C          62.5387   83.0057   13.9558 C.ar    1  UNL1        0.0025
     32 C          62.3170   84.4741   13.7439 C.ar    1  UNL1        0.0170
     33 C          62.4692   85.0655   12.3738 C.ar    1  UNL1        0.0782
     34 C          62.8430   84.1887   11.2156 C.ar    1  UNL1        0.1535
     35 F          62.9951   84.7801    9.8456 F       1  UNL1       -0.2029
     36 C          63.0647   82.7204   11.4275 C.ar    1  UNL1        0.0320
     37 O          63.7685   80.1731   14.2783 O.co2   1  UNL1       -0.5446
     38 C          63.1343   80.6605   13.0094 C.2     1  UNL1        0.0729
     39 O          62.7217   79.6796   11.9522 O.co2   1  UNL1       -0.5446
@<TRIPOS>UNITY_ATOM_ATTR
37 1
charge -1
@<TRIPOS>BOND
     1    37    38   ar
     2    38    39   ar
     3    38    30    1
     4    30    31   ar
     5    31    32   ar
     6    32    33   ar
     7    33    26    1
     8    26    27   am
     9    27    28    2
    10    27     1    1
    11     1    20    1
    12    20    21    1
    13    21    22    1
    14    22    23    1
    15    23    24    1
    16    24    25    1
    17     1     2    1
    18     2     3   ar
    19     3    13    1
    20    13    14   ar
    21    14    15   ar
    22    15    16   ar
    23    16    17    1
    24    16    18   ar
    25    18    19   ar
    26     3     4   ar
    27     4     5   ar
    28     5     6   ar
    29     6     7   ar
    30     7     8    1
    31     7     9   ar
    32     9    10    1
    33     9    11   ar
    34    11    12   ar
    35    33    34   ar
    36    34    35    1
    37    34    36   ar
    38    36    30   ar
    39    25    20    1
    40    12     2   ar
    41    19    13   ar
    42    12     5   ar
    43    26    29    1
@<TRIPOS>MOLECULE
*****
 39 43 0 0 0
SMALL
GASTEIGER

@<TRIPOS>ATOM
      1 C          62.8681   85.5560   11.2051 C.3     1  UNL1        0.1631
      2 N          63.1965   86.0958   12.5656 N.ar    1  UNL1       -0.3047
      3 C          63.3601   85.2879   13.8188 C.ar    1  UNL1        0.1441
      4 N          63.6836   86.2311   14.9394 N.ar    1  UNL1       -0.2267
      5 C          63.7198   87.6219   14.3787 C.ar    1  UNL1        0.1010
      6 C          63.9881   88.9537   15.0146 C.ar    1  UNL1        0.0526
      7 C          63.9554   90.2019   14.1833 C.ar    1  UNL1        0.1690
      8 F          64.2237   91.5337   14.8193 F       1  UNL1       -0.2017
      9 C          63.6543   90.1183   12.7163 C.ar    1  UNL1        0.1689
     10 F          63.6216   91.3665   11.8850 F       1  UNL1       -0.2017
     11 C          63.3860   88.7865   12.0804 C.ar    1  UNL1        0.0507
     12 C          63.4188   87.5383   12.9116 C.ar    1  UNL1        0.0816
     13 C          63.2241   83.7983   13.9315 C.ar    1  UNL1        0.0342
     14 C          61.9037   83.1918   14.3039 C.ar    1  UNL1        0.0039
     15 C          61.7677   81.7023   14.4166 C.ar    1  UNL1        0.0115
     16 C          62.9521   80.8193   14.1571 C.ar    1  UNL1        0.0577
     17 CL         62.8160   79.3297   14.2698 Cl      1  UNL1       -0.0822
     18 C          64.2725   81.4258   13.7847 C.ar    1  UNL1        0.0115
     19 C          64.4085   82.9153   13.6720 C.ar    1  UNL1        0.0039
     20 C          63.1002   84.1064   10.8974 C.3     1  UNL1        0.0297
     21 C          62.0121   83.1037   11.1439 C.3     1  UNL1        0.0024
     22 C          62.2442   81.6541   10.8361 C.3     1  UNL1        0.0001
     23 C          63.5644   81.2071   10.2817 C.3     1  UNL1        0.0000
     24 C          64.6525   82.2098   10.0351 C.3     1  UNL1        0.0001
     25 C          64.4204   83.6594   10.3430 C.3     1  UNL1        0.0024
     26 N          60.8458   86.8021   10.1526 N.am    1  UNL1       -0.2806
     27 C          62.3076   86.4658   10.1524 C.2     1  UNL1        0.2469
     28 O          63.2090   87.0393    9.0995 O.2     1  UNL1       -0.2727
     29 H          60.2542   86.4256   10.8436 H       1  UNL1        0.1550
     30 C          59.1648   89.5317    6.9945 C.ar    1  UNL1        0.0163
     31 C          59.7767   90.1089    8.2363 C.ar    1  UNL1        0.0025
     32 C          60.3371   89.1990    9.2891 C.ar    1  UNL1        0.0170
     33 C          60.2855   87.7119    9.0999 C.ar    1  UNL1        0.0782
     34 C          59.6735   87.1346    7.8580 C.ar    1  UNL1        0.1535
     35 F          59.6218   85.6475    7.6688 F       1  UNL1       -0.2029
     36 C          59.1131   88.0445    6.8053 C.ar    1  UNL1        0.0320
     37 O          57.1193   90.5693    5.7740 O.co2   1  UNL1       -0.5446
     38 C          58.6044   90.4414    5.9418 C.2     1  UNL1        0.0729
     39 O          59.5292   91.2234    5.0567 O.co2   1  UNL1       -0.5446
@<TRIPOS>UNITY_ATOM_ATTR
37 1
charge -1
@<TRIPOS>BOND
     1    37    38   ar
     2    38    39   ar
     3    38    30    1
     4    30    31   ar
     5    31    32   ar
     6    32    33   ar
     7    33    26    1
     8    26    27   am
     9    27    28    2
    10    27     1    1
    11     1    20    1
    12    20    21    1
    13    21    22    1
    14    22    23    1
    15    23    24    1
    16    24    25    1
    17     1     2    1
    18     2     3   ar
    19     3    13    1
    20    13    14   ar
    21    14    15   ar
    22    15    16   ar
    23    16    17    1
    24    16    18   ar
    25    18    19   ar
    26     3     4   ar
    27     4     5   ar
    28     5     6   ar
    29     6     7   ar
    30     7     8    1
    31     7     9   ar
    32     9    10    1
    33     9    11   ar
    34    11    12   ar
    35    33    34   ar
    36    34    35    1
    37    34    36   ar
    38    36    30   ar
    39    25    20    1
    40    12     2   ar
    41    19    13   ar
    42    12     5   ar
    43    26    29    1
@<TRIPOS>MOLECULE
*****
 39 43 0 0 0
SMALL
GASTEIGER

@<TRIPOS>ATOM
      1 C          61.2354   94.2021   -1.1330 C.3     1  UNL1        0.1631
      2 N          60.3666   94.3992   -2.3399 N.ar    1  UNL1       -0.3047
      3 C          60.7870   94.2164   -3.7681 C.ar    1  UNL1        0.1441
      4 N          59.6053   94.5180   -4.6414 N.ar    1  UNL1       -0.2267
      5 C          58.4546   94.8871   -3.7528 C.ar    1  UNL1        0.1010
      6 C          57.0390   95.2806   -4.0551 C.ar    1  UNL1        0.0526
      7 C          56.0941   95.6008   -2.9350 C.ar    1  UNL1        0.1690
      8 F          54.6784   95.9943   -3.2374 F       1  UNL1       -0.2017
      9 C          56.5646   95.5274   -1.5126 C.ar    1  UNL1        0.1689
     10 F          55.6196   95.8475   -0.3925 F       1  UNL1       -0.2017
     11 C          57.9801   95.1339   -1.2103 C.ar    1  UNL1        0.0507
     12 C          58.9251   94.8138   -2.3304 C.ar    1  UNL1        0.0816
     13 C          62.1499   93.8044   -4.2402 C.ar    1  UNL1        0.0342
     14 C          62.7603   94.4672   -5.4394 C.ar    1  UNL1        0.0039
     15 C          64.1231   94.0552   -5.9115 C.ar    1  UNL1        0.0115
     16 C          64.8755   92.9805   -5.1845 C.ar    1  UNL1        0.0577
     17 CL         66.2385   92.5685   -5.6566 Cl      1  UNL1       -0.0822
     18 C          64.2652   92.3177   -3.9853 C.ar    1  UNL1        0.0115
     19 C          62.9024   92.7297   -3.5131 C.ar    1  UNL1        0.0039
     20 C          62.5818   94.8593   -1.0626 C.3     1  UNL1        0.0297
     21 C          63.7124   94.1786   -0.3496 C.3     1  UNL1        0.0024
     22 C          65.0588   94.8360   -0.2792 C.3     1  UNL1        0.0001
     23 C          65.2748   96.1740   -0.9218 C.3     1  UNL1        0.0000
     24 C          64.1442   96.8548   -1.6349 C.3     1  UNL1        0.0001
     25 C          62.7978   96.1974   -1.7053 C.3     1  UNL1        0.0024
     26 N          61.0953   93.7214    1.4164 N.am    1  UNL1       -0.2806
     27 C          60.7575   93.3476    0.0035 C.2     1  UNL1        0.2469
     28 O          59.9420   92.1194   -0.2728 O.2     1  UNL1       -0.2727
     29 H          61.6305   94.5276    1.5978 H       1  UNL1        0.1550
     30 C          59.6616   91.1580    4.8258 C.ar    1  UNL1        0.0163
     31 C          58.6869   92.0059    4.0635 C.ar    1  UNL1        0.0025
     32 C          59.1649   92.8604    2.9270 C.ar    1  UNL1        0.0170
     33 C          60.6174   92.8670    2.5529 C.ar    1  UNL1        0.0782
     34 C          61.5921   92.0190    3.3151 C.ar    1  UNL1        0.1535
     35 F          63.0447   92.0256    2.9409 F       1  UNL1       -0.2029
     36 C          61.1142   91.1646    4.4515 C.ar    1  UNL1        0.0320
     37 O          60.1758   89.6530    6.8802 O.co2   1  UNL1       -0.5446
     38 C          59.1838   90.3035    5.9622 C.2     1  UNL1        0.0729
     39 O          57.7139   90.0996    6.1807 O.co2   1  UNL1       -0.5446
@<TRIPOS>UNITY_ATOM_ATTR
37 1
charge -1
@<TRIPOS>BOND
     1    37    38   ar
     2    38    39   ar
     3    38    30    1
     4    30    31   ar
     5    31    32   ar
     6    32    33   ar
     7    33    26    1
     8    26    27   am
     9    27    28    2
    10    27     1    1
    11     1    20    1
    12    20    21    1
    13    21    22    1
    14    22    23    1
    15    23    24    1
    16    24    25    1
    17     1     2    1
    18     2     3   ar
    19     3    13    1
    20    13    14   ar
    21    14    15   ar
    22    15    16   ar
    23    16    17    1
    24    16    18   ar
    25    18    19   ar
    26     3     4   ar
    27     4     5   ar
    28     5     6   ar
    29     6     7   ar
    30     7     8    1
    31     7     9   ar
    32     9    10    1
    33     9    11   ar
    34    11    12   ar
    35    33    34   ar
    36    34    35    1
    37    34    36   ar
    38    36    30   ar
    39    25    20    1
    40    12     2   ar
    41    19    13   ar
    42    12     5   ar
    43    26    29    1
@<TRIPOS>MOLECULE
*****
 39 43 0 0 0
SMALL
GASTEIGER

@<TRIPOS>ATOM
      1 C          63.3911   89.3704   13.0089 C.3     1  UNL1        0.1631
      2 N          63.6499   90.3670   11.9182 N.ar    1  UNL1       -0.3047
      3 C          62.9902   90.3910   10.5712 C.ar    1  UNL1        0.1441
      4 N          63.5463   91.5535    9.8034 N.ar    1  UNL1       -0.2267
      5 C          64.5497   92.2479   10.6759 C.ar    1  UNL1        0.1010
      6 C          65.4133   93.4531   10.4491 C.ar    1  UNL1        0.0526
      7 C          66.3409   93.9251   11.5292 C.ar    1  UNL1        0.1690
      8 F          67.2045   95.1305   11.3024 F       1  UNL1       -0.2017
      9 C          66.4049   93.1919   12.8362 C.ar    1  UNL1        0.1689
     10 F          67.3325   93.6639   13.9164 F       1  UNL1       -0.2017
     11 C          65.5413   91.9866   13.0630 C.ar    1  UNL1        0.0507
     12 C          64.6137   91.5146   11.9829 C.ar    1  UNL1        0.0816
     13 C          61.9561   89.4227   10.0786 C.ar    1  UNL1        0.0342
     14 C          62.3797   88.1535    9.4005 C.ar    1  UNL1        0.0039
     15 C          61.3455   87.1851    8.9078 C.ar    1  UNL1        0.0115
     16 C          59.8878   87.4859    9.0933 C.ar    1  UNL1        0.0577
     17 CL         58.8537   86.5174    8.6006 Cl      1  UNL1       -0.0822
     18 C          59.4642   88.7550    9.7713 C.ar    1  UNL1        0.0115
     19 C          60.4982   89.7234   10.2640 C.ar    1  UNL1        0.0039
     20 C          63.4358   89.8015   14.4449 C.3     1  UNL1        0.0297
     21 C          63.0813   88.8297   15.5311 C.3     1  UNL1        0.0024
     22 C          63.1260   89.2609   16.9671 C.3     1  UNL1        0.0001
     23 C          63.5252   90.6638   17.3169 C.3     1  UNL1        0.0000
     24 C          63.8797   91.6357   16.2307 C.3     1  UNL1        0.0001
     25 C          63.8350   91.2045   14.7947 C.3     1  UNL1        0.0024
     26 N          64.0053   86.8485   13.1231 N.am    1  UNL1       -0.2806
     27 C          63.0877   87.9425   12.6637 C.2     1  UNL1        0.2469
     28 O          61.8666   87.6086   11.8590 O.2     1  UNL1       -0.2727
     29 H          64.8068   87.0675   13.6512 H       1  UNL1        0.1550
     30 C          63.0947   82.5650   12.0871 C.ar    1  UNL1        0.0163
     31 C          62.8415   83.6498   11.0825 C.ar    1  UNL1        0.0025
     32 C          63.1450   85.0777   11.4279 C.ar    1  UNL1        0.0170
     33 C          63.7018   85.4207   12.7778 C.ar    1  UNL1        0.0782
     34 C          63.9551   84.3359   13.7824 C.ar    1  UNL1        0.1535
     35 F          64.5119   84.6790   15.1323 F       1  UNL1       -0.2029
     36 C          63.6516   82.9082   13.4370 C.ar    1  UNL1        0.0320
     37 O          62.9655   80.6529   10.3329 O.co2   1  UNL1       -0.5446
     38 C          62.7912   81.1372   11.7418 C.2     1  UNL1        0.0729
     39 O          62.3134   80.1937   12.8055 O.co2   1  UNL1       -0.5446
@<TRIPOS>UNITY_ATOM_ATTR
37 1
charge -1
@<TRIPOS>BOND
     1    37    38   ar
     2    38    39   ar
     3    38    30    1
     4    30    31   ar
     5    31    32   ar
     6    32    33   ar
     7    33    26    1
     8    26    27   am
     9    27    28    2
    10    27     1    1
    11     1    20    1
    12    20    21    1
    13    21    22    1
    14    22    23    1
    15    23    24    1
    16    24    25    1
    17     1     2    1
    18     2     3   ar
    19     3    13    1
    20    13    14   ar
    21    14    15   ar
    22    15    16   ar
    23    16    17    1
    24    16    18   ar
    25    18    19   ar
    26     3     4   ar
    27     4     5   ar
    28     5     6   ar
    29     6     7   ar
    30     7     8    1
    31     7     9   ar
    32     9    10    1
    33     9    11   ar
    34    11    12   ar
    35    33    34   ar
    36    34    35    1
    37    34    36   ar
    38    36    30   ar
    39    25    20    1
    40    12     2   ar
    41    19    13   ar
    42    12     5   ar
    43    26    29    1
