@<TRIPOS>MOLECULE
*****
 29 31 0 0 0
SMALL
GASTEIGER

@<TRIPOS>ATOM
      1 O          59.9639   87.9958   11.6172 O.2     1  UNL1       -0.2732
      2 C          61.2529   88.7375   11.4213 C.2     1  UNL1        0.2430
      3 N          62.4777   88.0040   10.9611 N.am    1  UNL1       -0.2972
      4 H          63.3237   88.4908   10.8325 H       1  UNL1        0.1500
      5 C          61.3171   90.2126   11.6856 C.3     1  UNL1        0.1759
      6 N          62.6330   90.8624   11.9959 N.am    1  UNL1       -0.2931
      7 C          63.2614   90.6769   13.3452 C.2     1  UNL1        0.2462
      8 O          62.5738   89.8417   14.3843 O.2     1  UNL1       -0.2701
      9 H          63.0843   91.4106   11.3139 H       1  UNL1        0.1502
     10 C          64.5773   91.3267   13.6555 C.ar    1  UNL1        0.0535
     11 C          65.3297   92.0492   12.5776 C.ar    1  UNL1        0.0068
     12 C          66.6455   92.6989   12.8879 C.ar    1  UNL1        0.0298
     13 C          67.2090   92.6262   14.2762 C.ar    1  UNL1        0.1401
     14 F          68.5249   93.2760   14.5865 F       1  UNL1       -0.2042
     15 C          66.4566   91.9038   15.3541 C.ar    1  UNL1        0.0298
     16 C          65.1407   91.2540   15.0438 C.ar    1  UNL1        0.0068
     17 C          62.4135   86.5288   10.6968 C.3     1  UNL1        0.1170
     18 C          62.0234   86.0265    9.3384 C.ar    1  UNL1       -0.0003
     19 C          60.6253   86.2326    8.8356 C.ar    1  UNL1       -0.0024
     20 C          60.2351   85.7303    7.4771 C.ar    1  UNL1       -0.0003
     21 C          61.2431   85.0220    6.6214 C.ar    1  UNL1       -0.0000
     22 C          62.6413   84.8159    7.1242 C.ar    1  UNL1       -0.0003
     23 C          63.0314   85.3182    8.4826 C.ar    1  UNL1       -0.0024
     24 C          62.7395   85.5560   11.7910 C.ar    1  UNL1        0.0028
     25 C          63.3520   86.0439   13.0705 C.ar    1  UNL1        0.0183
     26 C          63.6780   85.0710   14.1647 C.ar    1  UNL1        0.0986
     27 N          63.3914   83.6103   13.9795 N.ar    1  UNL1       -0.2423
     28 C          62.7790   83.1225   12.7001 C.ar    1  UNL1        0.0986
     29 C          62.4530   84.0953   11.6059 C.ar    1  UNL1        0.0183
@<TRIPOS>BOND
     1     1     2    2
     2     2     5    1
     3     5     6    1
     4     6     7   am
     5     7     8    2
     6     7    10    1
     7    10    11   ar
     8    11    12   ar
     9    12    13   ar
    10    13    14    1
    11    13    15   ar
    12    15    16   ar
    13     2     3   am
    14     3    17    1
    15    17    18    1
    16    18    19   ar
    17    19    20   ar
    18    20    21   ar
    19    21    22   ar
    20    22    23   ar
    21    17    24    1
    22    24    25   ar
    23    25    26   ar
    24    26    27   ar
    25    27    28   ar
    26    28    29   ar
    27    16    10   ar
    28    23    18   ar
    29    29    24   ar
    30     6     9    1
    31     3     4    1
@<TRIPOS>MOLECULE
*****
 29 31 0 0 0
SMALL
GASTEIGER

@<TRIPOS>ATOM
      1 O          62.3962   89.3147   16.3523 O.2     1  UNL1       -0.2732
      2 C          63.2732   88.1536   15.9880 C.2     1  UNL1        0.2430
      3 N          64.2840   88.2931   14.8885 N.am    1  UNL1       -0.2972
      4 H          64.8595   87.5310   14.6494 H       1  UNL1        0.1500
      5 C          63.1393   86.8530   16.7230 C.3     1  UNL1        0.1759
      6 N          62.8141   85.5964   15.9710 N.am    1  UNL1       -0.2931
      7 C          63.8494   84.9589   15.0926 C.2     1  UNL1        0.2462
      8 O          65.2099   85.5778   14.9661 O.2     1  UNL1       -0.2701
      9 H          61.9212   85.1902   16.0540 H       1  UNL1        0.1502
     10 C          63.5242   83.7024   14.3405 C.ar    1  UNL1        0.0535
     11 C          62.3965   82.8253   14.7976 C.ar    1  UNL1        0.0068
     12 C          62.0714   81.5689   14.0456 C.ar    1  UNL1        0.0298
     13 C          62.8740   81.1895   12.8365 C.ar    1  UNL1        0.1401
     14 F          62.5488   79.9329   12.0845 F       1  UNL1       -0.2042
     15 C          64.0017   82.0665   12.3794 C.ar    1  UNL1        0.0298
     16 C          64.3268   83.3230   13.1315 C.ar    1  UNL1        0.0068
     17 C          64.4179   89.5938   14.1534 C.3     1  UNL1        0.1170
     18 C          63.7604   89.7711   12.8169 C.ar    1  UNL1       -0.0003
     19 C          63.8340   91.0944   12.1145 C.ar    1  UNL1       -0.0024
     20 C          63.1765   91.2717   10.7780 C.ar    1  UNL1       -0.0003
     21 C          62.4453   90.1257   10.1439 C.ar    1  UNL1       -0.0000
     22 C          62.3717   88.8023   10.8464 C.ar    1  UNL1       -0.0003
     23 C          63.0292   88.6251   12.1829 C.ar    1  UNL1       -0.0024
     24 C          65.2093   90.7172   14.7548 C.ar    1  UNL1        0.0028
     25 C          66.6030   90.9941   14.2741 C.ar    1  UNL1        0.0183
     26 C          67.3944   92.1175   14.8755 C.ar    1  UNL1        0.0986
     27 N          66.7922   92.9639   15.9577 N.ar    1  UNL1       -0.2423
     28 C          65.3986   92.6869   16.4383 C.ar    1  UNL1        0.0986
     29 C          64.6071   91.5635   15.8369 C.ar    1  UNL1        0.0183
@<TRIPOS>BOND
     1     1     2    2
     2     2     5    1
     3     5     6    1
     4     6     7   am
     5     7     8    2
     6     7    10    1
     7    10    11   ar
     8    11    12   ar
     9    12    13   ar
    10    13    14    1
    11    13    15   ar
    12    15    16   ar
    13     2     3   am
    14     3    17    1
    15    17    18    1
    16    18    19   ar
    17    19    20   ar
    18    20    21   ar
    19    21    22   ar
    20    22    23   ar
    21    17    24    1
    22    24    25   ar
    23    25    26   ar
    24    26    27   ar
    25    27    28   ar
    26    28    29   ar
    27    16    10   ar
    28    23    18   ar
    29    29    24   ar
    30     6     9    1
    31     3     4    1
@<TRIPOS>MOLECULE
*****
 29 31 0 0 0
SMALL
GASTEIGER

@<TRIPOS>ATOM
      1 O          62.3448   89.3496   16.1809 O.2     1  UNL1       -0.2732
      2 C          63.3122   88.2327   15.9228 C.2     1  UNL1        0.2430
      3 N          64.3906   88.3975   14.8934 N.am    1  UNL1       -0.2972
      4 H          65.0256   87.6644   14.7240 H       1  UNL1        0.1500
      5 C          63.2012   86.9511   16.6942 C.3     1  UNL1        0.1759
      6 N          62.8602   85.6750   15.9833 N.am    1  UNL1       -0.2931
      7 C          63.8758   85.0147   15.0988 C.2     1  UNL1        0.2462
      8 O          65.2325   85.6304   14.9251 O.2     1  UNL1       -0.2701
      9 H          61.9697   85.2709   16.0973 H       1  UNL1        0.1502
     10 C          63.5347   83.7385   14.3880 C.ar    1  UNL1        0.0535
     11 C          64.3597   83.2874   13.2193 C.ar    1  UNL1        0.0068
     12 C          64.0186   82.0114   12.5085 C.ar    1  UNL1        0.0298
     13 C          62.8526   81.1864   12.9664 C.ar    1  UNL1        0.1401
     14 F          62.5115   79.9103   12.2555 F       1  UNL1       -0.2042
     15 C          62.0276   81.6375   14.1351 C.ar    1  UNL1        0.0298
     16 C          62.3686   82.9136   14.8458 C.ar    1  UNL1        0.0068
     17 C          64.5017   89.6791   14.1219 C.3     1  UNL1        0.1170
     18 C          63.8042   89.8228   12.8018 C.ar    1  UNL1       -0.0003
     19 C          63.0702   88.6558   12.2105 C.ar    1  UNL1       -0.0024
     20 C          62.3727   88.7994   10.8903 C.ar    1  UNL1       -0.0003
     21 C          62.4091   90.1099   10.1614 C.ar    1  UNL1       -0.0000
     22 C          63.1430   91.2769   10.7528 C.ar    1  UNL1       -0.0003
     23 C          63.8406   91.1333   12.0729 C.ar    1  UNL1       -0.0024
     24 C          65.3102   90.8172   14.6707 C.ar    1  UNL1        0.0028
     25 C          64.7943   91.6114   15.8339 C.ar    1  UNL1        0.0183
     26 C          65.6029   92.7494   16.3827 C.ar    1  UNL1        0.0986
     27 N          66.9274   93.0932   15.7682 N.ar    1  UNL1       -0.2423
     28 C          67.4432   92.2990   14.6050 C.ar    1  UNL1        0.0986
     29 C          66.6347   91.1610   14.0562 C.ar    1  UNL1        0.0183
@<TRIPOS>BOND
     1     1     2    2
     2     2     5    1
     3     5     6    1
     4     6     7   am
     5     7     8    2
     6     7    10    1
     7    10    11   ar
     8    11    12   ar
     9    12    13   ar
    10    13    14    1
    11    13    15   ar
    12    15    16   ar
    13     2     3   am
    14     3    17    1
    15    17    18    1
    16    18    19   ar
    17    19    20   ar
    18    20    21   ar
    19    21    22   ar
    20    22    23   ar
    21    17    24    1
    22    24    25   ar
    23    25    26   ar
    24    26    27   ar
    25    27    28   ar
    26    28    29   ar
    27    16    10   ar
    28    23    18   ar
    29    29    24   ar
    30     6     9    1
    31     3     4    1
@<TRIPOS>MOLECULE
*****
 29 31 0 0 0
SMALL
GASTEIGER

@<TRIPOS>ATOM
      1 O          62.3665   89.3823   16.1825 O.2     1  UNL1       -0.2732
      2 C          63.3332   88.2609   15.9416 C.2     1  UNL1        0.2430
      3 N          64.4268   88.4185   14.9271 N.am    1  UNL1       -0.2972
      4 H          65.0613   87.6825   14.7690 H       1  UNL1        0.1500
      5 C          63.2063   86.9821   16.7151 C.3     1  UNL1        0.1759
      6 N          62.8584   85.7074   16.0050 N.am    1  UNL1       -0.2931
      7 C          63.8729   85.0372   15.1266 C.2     1  UNL1        0.2462
      8 O          65.2354   85.6416   14.9584 O.2     1  UNL1       -0.2701
      9 H          61.9642   85.3107   16.1154 H       1  UNL1        0.1502
     10 C          63.5250   83.7625   14.4165 C.ar    1  UNL1        0.0535
     11 C          64.3743   83.2829   13.2769 C.ar    1  UNL1        0.0068
     12 C          64.0263   82.0083   12.5669 C.ar    1  UNL1        0.0298
     13 C          62.8291   81.2132   12.9965 C.ar    1  UNL1        0.1401
     14 F          62.4812   79.9385   12.2864 F       1  UNL1       -0.2042
     15 C          61.9799   81.6928   14.1361 C.ar    1  UNL1        0.0298
     16 C          62.3278   82.9674   14.8461 C.ar    1  UNL1        0.0068
     17 C          64.5538   89.6974   14.1535 C.3     1  UNL1        0.1170
     18 C          65.3895   90.8202   14.6926 C.ar    1  UNL1       -0.0003
     19 C          64.8701   91.6703   15.8140 C.ar    1  UNL1       -0.0024
     20 C          65.7059   92.7932   16.3532 C.ar    1  UNL1       -0.0003
     21 C          67.0611   93.0659   15.7710 C.ar    1  UNL1       -0.0000
     22 C          67.5805   92.2158   14.6496 C.ar    1  UNL1       -0.0003
     23 C          66.7448   91.0929   14.1104 C.ar    1  UNL1       -0.0024
     24 C          63.8449   89.8534   12.8408 C.ar    1  UNL1        0.0028
     25 C          63.8995   91.1621   12.1098 C.ar    1  UNL1        0.0183
     26 C          63.1907   91.3181   10.7971 C.ar    1  UNL1        0.0986
     27 N          62.4272   90.1653   10.2154 N.ar    1  UNL1       -0.2423
     28 C          62.3726   88.8567   10.9464 C.ar    1  UNL1        0.0986
     29 C          63.0815   88.7007   12.2591 C.ar    1  UNL1        0.0183
@<TRIPOS>BOND
     1     1     2    2
     2     2     5    1
     3     5     6    1
     4     6     7   am
     5     7     8    2
     6     7    10    1
     7    10    11   ar
     8    11    12   ar
     9    12    13   ar
    10    13    14    1
    11    13    15   ar
    12    15    16   ar
    13     2     3   am
    14     3    17    1
    15    17    18    1
    16    18    19   ar
    17    19    20   ar
    18    20    21   ar
    19    21    22   ar
    20    22    23   ar
    21    17    24    1
    22    24    25   ar
    23    25    26   ar
    24    26    27   ar
    25    27    28   ar
    26    28    29   ar
    27    16    10   ar
    28    23    18   ar
    29    29    24   ar
    30     6     9    1
    31     3     4    1
@<TRIPOS>MOLECULE
*****
 29 31 0 0 0
SMALL
GASTEIGER

@<TRIPOS>ATOM
      1 O          62.9692   88.9300   15.7628 O.2     1  UNL1       -0.2732
      2 C          63.7048   87.9009   14.9566 C.2     1  UNL1        0.2430
      3 N          64.0547   88.1794   13.5249 N.am    1  UNL1       -0.2972
      4 H          64.5374   87.5039   12.9958 H       1  UNL1        0.1500
      5 C          64.0904   86.5933   15.5822 C.3     1  UNL1        0.1759
      6 N          64.0482   85.3323   14.7709 N.am    1  UNL1       -0.2931
      7 C          62.8282   84.4602   14.8032 C.2     1  UNL1        0.2462
      8 O          61.6505   84.8489   15.6468 O.2     1  UNL1       -0.2701
      9 H          64.8212   85.0771   14.2172 H       1  UNL1        0.1502
     10 C          62.7860   83.1992   13.9918 C.ar    1  UNL1        0.0535
     11 C          61.9759   82.0291   14.4658 C.ar    1  UNL1        0.0068
     12 C          61.9338   80.7682   13.6545 C.ar    1  UNL1        0.0298
     13 C          62.7017   80.6774   12.3691 C.ar    1  UNL1        0.1401
     14 F          62.6595   79.4164   11.5578 F       1  UNL1       -0.2042
     15 C          63.5118   81.8474   11.8952 C.ar    1  UNL1        0.0298
     16 C          63.5539   83.1083   12.7065 C.ar    1  UNL1        0.0068
     17 C          63.6691   89.4871   12.8992 C.3     1  UNL1        0.1170
     18 C          62.4768   89.5618   11.9922 C.ar    1  UNL1       -0.0003
     19 C          61.1372   89.9494   12.5448 C.ar    1  UNL1       -0.0024
     20 C          59.9448   90.0242   11.6377 C.ar    1  UNL1       -0.0003
     21 C          60.0921   89.7114   10.1781 C.ar    1  UNL1       -0.0000
     22 C          61.4317   89.3238    9.6255 C.ar    1  UNL1       -0.0003
     23 C          62.6240   89.2490   10.5326 C.ar    1  UNL1       -0.0024
     24 C          64.4758   90.7199   13.1807 C.ar    1  UNL1        0.0028
     25 C          64.7001   91.7330   12.0974 C.ar    1  UNL1        0.0183
     26 C          65.5069   92.9658   12.3788 C.ar    1  UNL1        0.0986
     27 N          66.0893   93.1856   13.7436 N.ar    1  UNL1       -0.2423
     28 C          65.8650   92.1726   14.8268 C.ar    1  UNL1        0.0986
     29 C          65.0583   90.9398   14.5453 C.ar    1  UNL1        0.0183
@<TRIPOS>BOND
     1     1     2    2
     2     2     5    1
     3     5     6    1
     4     6     7   am
     5     7     8    2
     6     7    10    1
     7    10    11   ar
     8    11    12   ar
     9    12    13   ar
    10    13    14    1
    11    13    15   ar
    12    15    16   ar
    13     2     3   am
    14     3    17    1
    15    17    18    1
    16    18    19   ar
    17    19    20   ar
    18    20    21   ar
    19    21    22   ar
    20    22    23   ar
    21    17    24    1
    22    24    25   ar
    23    25    26   ar
    24    26    27   ar
    25    27    28   ar
    26    28    29   ar
    27    16    10   ar
    28    23    18   ar
    29    29    24   ar
    30     6     9    1
    31     3     4    1
@<TRIPOS>MOLECULE
*****
 29 31 0 0 0
SMALL
GASTEIGER

@<TRIPOS>ATOM
      1 O          61.2662   89.7965   13.6235 O.2     1  UNL1       -0.2732
      2 C          61.8931   90.1023   12.2955 C.2     1  UNL1        0.2430
      3 N          63.3671   90.3648   12.2047 N.am    1  UNL1       -0.2972
      4 H          63.7786   90.5655   11.3332 H       1  UNL1        0.1500
      5 C          61.0460   90.1456   11.0584 C.3     1  UNL1        0.1759
      6 N          61.2970   89.1743    9.9432 N.am    1  UNL1       -0.2931
      7 C          61.0820   87.7064   10.1645 C.2     1  UNL1        0.2462
      8 O          60.6160   87.2097   11.5010 O.2     1  UNL1       -0.2701
      9 H          61.6029   89.5002    9.0660 H       1  UNL1        0.1502
     10 C          61.3330   86.7350    9.0493 C.ar    1  UNL1        0.0535
     11 C          62.6697   86.0662    8.9239 C.ar    1  UNL1        0.0068
     12 C          62.9206   85.0949    7.8087 C.ar    1  UNL1        0.0298
     13 C          61.8348   84.7925    6.8190 C.ar    1  UNL1        0.1401
     14 F          62.0858   83.8212    5.7038 F       1  UNL1       -0.2042
     15 C          60.4981   85.4614    6.9444 C.ar    1  UNL1        0.0298
     16 C          60.2472   86.4326    8.0596 C.ar    1  UNL1        0.0068
     17 C          64.2143   90.3215   13.4419 C.3     1  UNL1        0.1170
     18 C          63.9733   89.2653   14.4793 C.ar    1  UNL1       -0.0003
     19 C          63.3845   89.6390   15.8073 C.ar    1  UNL1       -0.0024
     20 C          63.1435   88.5828   16.8449 C.ar    1  UNL1       -0.0003
     21 C          63.4913   87.1529   16.5543 C.ar    1  UNL1       -0.0000
     22 C          64.0801   86.7792   15.2262 C.ar    1  UNL1       -0.0003
     23 C          64.3211   87.8354   14.1888 C.ar    1  UNL1       -0.0024
     24 C          65.3024   91.3345   13.6416 C.ar    1  UNL1        0.0028
     25 C          65.3861   92.5324   12.7426 C.ar    1  UNL1        0.0183
     26 C          66.4742   93.5454   12.9423 C.ar    1  UNL1        0.0986
     27 N          67.4787   93.3604   14.0409 N.ar    1  UNL1       -0.2423
     28 C          67.3950   92.1626   14.9398 C.ar    1  UNL1        0.0986
     29 C          66.3069   91.1496   14.7401 C.ar    1  UNL1        0.0183
@<TRIPOS>BOND
     1     1     2    2
     2     2     5    1
     3     5     6    1
     4     6     7   am
     5     7     8    2
     6     7    10    1
     7    10    11   ar
     8    11    12   ar
     9    12    13   ar
    10    13    14    1
    11    13    15   ar
    12    15    16   ar
    13     2     3   am
    14     3    17    1
    15    17    18    1
    16    18    19   ar
    17    19    20   ar
    18    20    21   ar
    19    21    22   ar
    20    22    23   ar
    21    17    24    1
    22    24    25   ar
    23    25    26   ar
    24    26    27   ar
    25    27    28   ar
    26    28    29   ar
    27    16    10   ar
    28    23    18   ar
    29    29    24   ar
    30     6     9    1
    31     3     4    1
@<TRIPOS>MOLECULE
*****
 29 31 0 0 0
SMALL
GASTEIGER

@<TRIPOS>ATOM
      1 O          62.7564   88.6467    9.7020 O.2     1  UNL1       -0.2732
      2 C          62.0062   88.6724   11.0007 C.2     1  UNL1        0.2430
      3 N          61.6706   87.3878   11.6986 N.am    1  UNL1       -0.2972
      4 H          61.1782   87.4047   12.5509 H       1  UNL1        0.1500
      5 C          61.5915   89.9828   11.6014 C.3     1  UNL1        0.1759
      6 N          62.6278   90.9160   12.1541 N.am    1  UNL1       -0.2931
      7 C          63.6532   90.4084   13.1240 C.2     1  UNL1        0.2462
      8 O          63.6424   88.9677   13.5414 O.2     1  UNL1       -0.2701
      9 H          62.6349   91.8616   11.8802 H       1  UNL1        0.1502
     10 C          64.6895   91.3416   13.6767 C.ar    1  UNL1        0.0535
     11 C          64.9933   91.3399   15.1455 C.ar    1  UNL1        0.0068
     12 C          66.0296   92.2730   15.6981 C.ar    1  UNL1        0.0298
     13 C          66.7621   93.2078   14.7818 C.ar    1  UNL1        0.1401
     14 F          67.7984   94.1410   15.3344 F       1  UNL1       -0.2042
     15 C          66.4583   93.2095   13.3129 C.ar    1  UNL1        0.0298
     16 C          65.4220   92.2763   12.7603 C.ar    1  UNL1        0.0068
     17 C          62.0853   86.0774   11.0979 C.3     1  UNL1        0.1170
     18 C          62.7450   85.0359   11.9523 C.ar    1  UNL1       -0.0003
     19 C          63.5187   85.4453   13.1704 C.ar    1  UNL1       -0.0024
     20 C          64.1785   84.4038   14.0250 C.ar    1  UNL1       -0.0003
     21 C          64.0645   82.9530   13.6614 C.ar    1  UNL1       -0.0000
     22 C          63.2907   82.5437   12.4432 C.ar    1  UNL1       -0.0003
     23 C          62.6310   83.5851   11.5887 C.ar    1  UNL1       -0.0024
     24 C          61.8403   85.8084    9.6427 C.ar    1  UNL1        0.0028
     25 C          60.5108   86.1399    9.0322 C.ar    1  UNL1        0.0183
     26 C          60.2658   85.8710    7.5770 C.ar    1  UNL1        0.0986
     27 N          61.3503   85.2706    6.7322 N.ar    1  UNL1       -0.2423
     28 C          62.6797   84.9391    7.3427 C.ar    1  UNL1        0.0986
     29 C          62.9247   85.2080    8.7979 C.ar    1  UNL1        0.0183
@<TRIPOS>BOND
     1     1     2    2
     2     2     5    1
     3     5     6    1
     4     6     7   am
     5     7     8    2
     6     7    10    1
     7    10    11   ar
     8    11    12   ar
     9    12    13   ar
    10    13    14    1
    11    13    15   ar
    12    15    16   ar
    13     2     3   am
    14     3    17    1
    15    17    18    1
    16    18    19   ar
    17    19    20   ar
    18    20    21   ar
    19    21    22   ar
    20    22    23   ar
    21    17    24    1
    22    24    25   ar
    23    25    26   ar
    24    26    27   ar
    25    27    28   ar
    26    28    29   ar
    27    16    10   ar
    28    23    18   ar
    29    29    24   ar
    30     6     9    1
    31     3     4    1
@<TRIPOS>MOLECULE
*****
 29 31 0 0 0
SMALL
GASTEIGER

@<TRIPOS>ATOM
      1 O          62.9883   88.9232   15.6750 O.2     1  UNL1       -0.2732
      2 C          63.6961   87.8629   14.8845 C.2     1  UNL1        0.2430
      3 N          64.0418   88.1057   13.4453 N.am    1  UNL1       -0.2972
      4 H          64.5064   87.4098   12.9265 H       1  UNL1        0.1500
      5 C          64.0583   86.5599   15.5333 C.3     1  UNL1        0.1759
      6 N          64.0286   85.2906   14.7346 N.am    1  UNL1       -0.2931
      7 C          62.7729   84.4723   14.6732 C.2     1  UNL1        0.2462
      8 O          61.5470   84.9233   15.4104 O.2     1  UNL1       -0.2701
      9 H          64.8332   84.9945   14.2507 H       1  UNL1        0.1502
     10 C          62.7432   83.2029   13.8744 C.ar    1  UNL1        0.0535
     11 C          62.1970   81.9459   14.4839 C.ar    1  UNL1        0.0068
     12 C          62.1673   80.6767   13.6852 C.ar    1  UNL1        0.0298
     13 C          62.6839   80.6644   12.2770 C.ar    1  UNL1        0.1401
     14 F          62.6542   79.3950   11.4782 F       1  UNL1       -0.2042
     15 C          63.2301   81.9214   11.6675 C.ar    1  UNL1        0.0298
     16 C          63.2598   83.1907   12.4662 C.ar    1  UNL1        0.0068
     17 C          63.6797   89.4088   12.7964 C.3     1  UNL1        0.1170
     18 C          64.5345   90.6209   13.0198 C.ar    1  UNL1       -0.0003
     19 C          64.6041   91.6928   11.9729 C.ar    1  UNL1       -0.0024
     20 C          65.4589   92.9051   12.1963 C.ar    1  UNL1       -0.0003
     21 C          66.2440   93.0454   13.4667 C.ar    1  UNL1       -0.0000
     22 C          66.1744   91.9734   14.5136 C.ar    1  UNL1       -0.0003
     23 C          65.3196   90.7612   14.2902 C.ar    1  UNL1       -0.0024
     24 C          62.4628   89.4996   11.9241 C.ar    1  UNL1        0.0028
     25 C          62.5332   89.0627   10.4908 C.ar    1  UNL1        0.0183
     26 C          61.3163   89.1535    9.6185 C.ar    1  UNL1        0.0986
     27 N          60.0290   89.6812   10.1795 N.ar    1  UNL1       -0.2423
     28 C          59.9587   90.1179   11.6127 C.ar    1  UNL1        0.0986
     29 C          61.1756   90.0272   12.4850 C.ar    1  UNL1        0.0183
@<TRIPOS>BOND
     1     1     2    2
     2     2     5    1
     3     5     6    1
     4     6     7   am
     5     7     8    2
     6     7    10    1
     7    10    11   ar
     8    11    12   ar
     9    12    13   ar
    10    13    14    1
    11    13    15   ar
    12    15    16   ar
    13     2     3   am
    14     3    17    1
    15    17    18    1
    16    18    19   ar
    17    19    20   ar
    18    20    21   ar
    19    21    22   ar
    20    22    23   ar
    21    17    24    1
    22    24    25   ar
    23    25    26   ar
    24    26    27   ar
    25    27    28   ar
    26    28    29   ar
    27    16    10   ar
    28    23    18   ar
    29    29    24   ar
    30     6     9    1
    31     3     4    1
@<TRIPOS>MOLECULE
*****
 29 31 0 0 0
SMALL
GASTEIGER

@<TRIPOS>ATOM
      1 O          65.1739   90.0557   14.0151 O.2     1  UNL1       -0.2732
      2 C          64.1591   90.6620   13.0916 C.2     1  UNL1        0.2430
      3 N          64.5109   91.8757   12.2836 N.am    1  UNL1       -0.2972
      4 H          63.8449   92.2736   11.6775 H       1  UNL1        0.1500
      5 C          62.7926   90.0544   12.9762 C.3     1  UNL1        0.1759
      6 N          62.5331   88.9787   11.9634 N.am    1  UNL1       -0.2931
      7 C          61.5702   89.2233   10.8396 C.2     1  UNL1        0.2462
      8 O          60.8668   90.5434   10.7285 O.2     1  UNL1       -0.2701
      9 H          62.9948   88.1123   12.0363 H       1  UNL1        0.1502
     10 C          61.3107   88.1476    9.8268 C.ar    1  UNL1        0.0535
     11 C          62.2965   87.0311    9.6492 C.ar    1  UNL1        0.0068
     12 C          62.0370   85.9555    8.6365 C.ar    1  UNL1        0.0298
     13 C          60.7917   85.9965    7.8012 C.ar    1  UNL1        0.1401
     14 F          60.5322   84.9208    6.7884 F       1  UNL1       -0.2042
     15 C          59.8059   87.1130    7.9788 C.ar    1  UNL1        0.0298
     16 C          60.0654   88.1886    8.9916 C.ar    1  UNL1        0.0068
     17 C          65.8775   92.4834   12.3990 C.3     1  UNL1        0.1170
     18 C          66.6132   92.4322   13.7051 C.ar    1  UNL1       -0.0003
     19 C          68.0334   91.9513   13.7476 C.ar    1  UNL1       -0.0024
     20 C          68.7691   91.9001   15.0538 C.ar    1  UNL1       -0.0003
     21 C          68.0847   92.3298   16.3175 C.ar    1  UNL1       -0.0000
     22 C          66.6645   92.8108   16.2750 C.ar    1  UNL1       -0.0003
     23 C          65.9288   92.8620   14.9688 C.ar    1  UNL1       -0.0024
     24 C          66.5083   93.1422   11.2082 C.ar    1  UNL1        0.0028
     25 C          66.2303   94.5869   10.9154 C.ar    1  UNL1        0.0183
     26 C          66.8611   95.2457    9.7246 C.ar    1  UNL1        0.0986
     27 N          67.7700   94.4598    8.8266 N.ar    1  UNL1       -0.2423
     28 C          68.0480   93.0152    9.1193 C.ar    1  UNL1        0.0986
     29 C          67.4171   92.3564   10.3101 C.ar    1  UNL1        0.0183
@<TRIPOS>BOND
     1     1     2    2
     2     2     5    1
     3     5     6    1
     4     6     7   am
     5     7     8    2
     6     7    10    1
     7    10    11   ar
     8    11    12   ar
     9    12    13   ar
    10    13    14    1
    11    13    15   ar
    12    15    16   ar
    13     2     3   am
    14     3    17    1
    15    17    18    1
    16    18    19   ar
    17    19    20   ar
    18    20    21   ar
    19    21    22   ar
    20    22    23   ar
    21    17    24    1
    22    24    25   ar
    23    25    26   ar
    24    26    27   ar
    25    27    28   ar
    26    28    29   ar
    27    16    10   ar
    28    23    18   ar
    29    29    24   ar
    30     6     9    1
    31     3     4    1
