@<TRIPOS>MOLECULE
*****
 45 47 0 0 0
SMALL
GASTEIGER

@<TRIPOS>ATOM
      1 C          62.0467   86.0673   10.0546 C.3     1  UNL1        0.0562
      2 C          61.0252   85.9337    8.9644 C.3     1  UNL1        0.1536
      3 S          60.1162   87.0829    8.6434 S.O2    1  UNL1       -0.0085
      4 O          59.0381   87.8832    7.9747 O.2     1  UNL1       -0.1729
      5 O          59.6292   86.0781    7.6419 O.2     1  UNL1       -0.1729
      6 C          60.2287   88.3657    9.4127 C.3     1  UNL1        0.1689
      7 C          61.2502   88.4993   10.5029 C.3     1  UNL1        0.1054
      8 C          62.1593   87.3501   10.8239 C.3     1  UNL1        0.1285
      9 O          63.1808   87.4837   11.9141 O.3     1  UNL1       -0.3830
     10 H          63.1206   88.3686   12.3069 H       1  UNL1        0.2104
     11 N          61.3628   89.7821   11.2722 N.3     1  UNL1       -0.2915
     12 H          61.6419   89.5329   12.2211 H       1  UNL1        0.1236
     13 C          62.3061   90.8532   10.8106 C.3     1  UNL1        0.0958
     14 C          63.5175   91.1893   11.6288 C.ar    1  UNL1       -0.0034
     15 C          63.6297   90.6951   13.0406 C.ar    1  UNL1       -0.0027
     16 C          64.8411   91.0312   13.8589 C.ar    1  UNL1        0.0028
     17 C          65.9403   91.8616   13.2653 C.ar    1  UNL1        0.0372
     18 C          65.8281   92.3557   11.8535 C.ar    1  UNL1        0.1465
     19 C          64.6166   92.0196   11.0353 C.ar    1  UNL1        0.0343
     20 O          66.9273   93.1861   11.2599 O.3     1  UNL1       -0.4045
     21 C          67.6295   92.7234   10.0178 C.3     1  UNL1        0.5753
     22 F          68.3317   92.2607    8.7757 F       1  UNL1       -0.1328
     23 F          66.8512   93.7173    9.2076 F       1  UNL1       -0.1328
     24 F          68.4077   91.7295   10.8280 F       1  UNL1       -0.1328
     25 C          62.9557   84.9181   10.3756 C.3     1  UNL1        0.0307
     26 N          62.1383   81.8480   14.8383 N.pl3   1  UNL1       -0.3529
     27 C          62.2711   82.4784   14.0943 C.ar    1  UNL1        0.1037
     28 C          62.5562   81.7941   12.7903 C.ar    1  UNL1        0.1556
     29 F          62.6131   80.2965   12.7258 F       1  UNL1       -0.2028
     30 C          62.7844   82.6073   11.5507 C.ar    1  UNL1        0.0268
     31 C          62.7275   84.1049   11.6152 C.ar    1  UNL1       -0.0167
     32 C          62.4424   84.7891   12.9192 C.ar    1  UNL1        0.0341
     33 C          62.2142   83.9759   14.1587 C.ar    1  UNL1        0.1538
     34 H          62.1991   80.8784   14.6788 H       1  UNL1        0.1425
     35 H          61.9447   82.1870   15.7421 H       1  UNL1        0.1425
     36 O          61.9291   84.6602   15.4628 O.3     1  UNL1       -0.4621
     37 C          62.9982   85.4705   16.1340 C.3     1  UNL1        0.3551
     38 C          62.7266   86.1199   17.4586 C.3     1  UNL1        0.4428
     39 F          62.4551   86.7693   18.7832 F       1  UNL1       -0.1661
     40 F          61.2881   86.3017   17.0745 F       1  UNL1       -0.1661
     41 F          63.6418   86.0535   17.8147 F       1  UNL1       -0.1661
     42 C          64.3388   85.6314   15.4806 C.3     1  UNL1        0.4428
     43 F          65.6794   85.7922   14.8272 F       1  UNL1       -0.1661
     44 F          64.0344   87.0753   15.2118 F       1  UNL1       -0.1661
     45 F          64.6431   84.1874   15.7495 F       1  UNL1       -0.1661
@<TRIPOS>BOND
     1    26    27    1
     2    27    28   ar
     3    28    29    1
     4    28    30   ar
     5    30    31   ar
     6    31    25    1
     7     1    25    1
     8     1     2    1
     9     2     3    1
    10     3     4    2
    11     3     5    2
    12     3     6    1
    13     6     7    1
    14     7    11    1
    15    11    13    1
    16    13    14    1
    17    14    15   ar
    18    15    16   ar
    19    16    17   ar
    20    17    18   ar
    21    18    20    1
    22    20    21    1
    23    21    22    1
    24    21    23    1
    25    21    24    1
    26    18    19   ar
    27     7     8    1
    28     8     9    1
    29    31    32   ar
    30    32    33   ar
    31    33    36    1
    32    36    37    1
    33    37    38    1
    34    38    39    1
    35    38    40    1
    36    38    41    1
    37    37    42    1
    38    42    43    1
    39    42    44    1
    40    42    45    1
    41    33    27   ar
    42     8     1    1
    43    19    14   ar
    44    26    34    1
    45    26    35    1
    46    11    12    1
    47     9    10    1
@<TRIPOS>MOLECULE
*****
 45 47 0 0 0
SMALL
GASTEIGER

@<TRIPOS>ATOM
      1 C          62.0324   85.9689   10.0713 C.3     1  UNL1        0.0562
      2 C          61.0638   85.8214    8.9354 C.3     1  UNL1        0.1536
      3 S          60.1252   86.9423    8.5998 S.O2    1  UNL1       -0.0085
      4 O          59.0460   87.7160    7.9021 O.2     1  UNL1       -0.1729
      5 O          59.7205   85.9426    7.5573 O.2     1  UNL1       -0.1729
      6 C          60.1551   88.2106    9.4000 C.3     1  UNL1        0.1689
      7 C          61.1237   88.3582   10.5358 C.3     1  UNL1        0.1054
      8 C          62.0623   87.2373   10.8715 C.3     1  UNL1        0.1285
      9 O          63.0308   87.3848   12.0074 O.3     1  UNL1       -0.3830
     10 H          62.9198   88.2576   12.4157 H       1  UNL1        0.2104
     11 N          61.1536   89.6265   11.3361 N.3     1  UNL1       -0.2915
     12 H          61.1083   89.3560   12.3185 H       1  UNL1        0.1236
     13 C          62.3101   90.5720   11.2001 C.3     1  UNL1        0.0958
     14 C          63.2548   90.7713   12.3481 C.ar    1  UNL1       -0.0034
     15 C          62.9554   90.1536   13.6818 C.ar    1  UNL1       -0.0027
     16 C          63.9001   90.3529   14.8298 C.ar    1  UNL1        0.0028
     17 C          65.1443   91.1699   14.6439 C.ar    1  UNL1        0.0372
     18 C          65.4437   91.7876   13.3103 C.ar    1  UNL1        0.1465
     19 C          64.4990   91.5883   12.1623 C.ar    1  UNL1        0.0343
     20 O          66.6879   92.6047   13.1245 O.3     1  UNL1       -0.4045
     21 C          67.4042   93.1624   14.3186 C.3     1  UNL1        0.5753
     22 F          68.1205   93.7201   15.5127 F       1  UNL1       -0.1328
     23 F          68.3111   91.9677   14.3326 F       1  UNL1       -0.1328
     24 F          66.4973   94.3571   14.3046 F       1  UNL1       -0.1328
     25 C          62.9710   84.8481   10.4069 C.3     1  UNL1        0.0307
     26 N          62.1421   81.7208   14.8277 N.pl3   1  UNL1       -0.3529
     27 C          62.2786   82.3607   14.0926 C.ar    1  UNL1        0.1037
     28 C          62.5433   81.6929   12.7758 C.ar    1  UNL1        0.1556
     29 F          62.5773   80.1958   12.6876 F       1  UNL1       -0.2028
     30 C          62.7741   82.5220   11.5473 C.ar    1  UNL1        0.0268
     31 C          62.7402   84.0189   11.6355 C.ar    1  UNL1       -0.0167
     32 C          62.4754   84.6868   12.9522 C.ar    1  UNL1        0.0341
     33 C          62.2446   83.8577   14.1807 C.ar    1  UNL1        0.1538
     34 H          62.1871   80.7531   14.6526 H       1  UNL1        0.1425
     35 H          61.9605   82.0485   15.7382 H       1  UNL1        0.1425
     36 O          61.9799   84.5257   15.4975 O.3     1  UNL1       -0.4621
     37 C          63.0300   85.3963   16.1214 C.3     1  UNL1        0.3551
     38 C          62.7527   86.0914   17.4215 C.3     1  UNL1        0.4428
     39 F          62.4754   86.7864   18.7214 F       1  UNL1       -0.1661
     40 F          61.2954   86.1612   17.0732 F       1  UNL1       -0.1661
     41 F          63.6796   86.1014   17.7522 F       1  UNL1       -0.1661
     42 C          64.3574   85.5719   15.4452 C.3     1  UNL1        0.4428
     43 F          65.6848   85.7476   14.7691 F       1  UNL1       -0.1661
     44 F          64.6880   84.1351   15.7212 F       1  UNL1       -0.1661
     45 F          64.0267   87.0087   15.1693 F       1  UNL1       -0.1661
@<TRIPOS>BOND
     1    26    27    1
     2    27    28   ar
     3    28    29    1
     4    28    30   ar
     5    30    31   ar
     6    31    25    1
     7     1    25    1
     8     1     2    1
     9     2     3    1
    10     3     4    2
    11     3     5    2
    12     3     6    1
    13     6     7    1
    14     7    11    1
    15    11    13    1
    16    13    14    1
    17    14    15   ar
    18    15    16   ar
    19    16    17   ar
    20    17    18   ar
    21    18    20    1
    22    20    21    1
    23    21    22    1
    24    21    23    1
    25    21    24    1
    26    18    19   ar
    27     7     8    1
    28     8     9    1
    29    31    32   ar
    30    32    33   ar
    31    33    36    1
    32    36    37    1
    33    37    38    1
    34    38    39    1
    35    38    40    1
    36    38    41    1
    37    37    42    1
    38    42    43    1
    39    42    44    1
    40    42    45    1
    41    33    27   ar
    42     8     1    1
    43    19    14   ar
    44    26    34    1
    45    26    35    1
    46    11    12    1
    47     9    10    1
@<TRIPOS>MOLECULE
*****
 45 47 0 0 0
SMALL
GASTEIGER

@<TRIPOS>ATOM
      1 C          64.1867   91.0057   13.8106 C.3     1  UNL1        0.0562
      2 C          65.4485   91.7521   13.4930 C.3     1  UNL1        0.1536
      3 S          65.7255   92.1924   12.0861 S.O2    1  UNL1       -0.0085
      4 O          66.4294   92.8140   10.9164 O.2     1  UNL1       -0.1729
      5 O          66.9546   92.7144   12.7691 O.2     1  UNL1       -0.1729
      6 C          64.7408   91.8863   10.9968 C.3     1  UNL1        0.1689
      7 C          63.4791   91.1398   11.3143 C.3     1  UNL1        0.1054
      8 C          63.2020   90.6995   12.7213 C.3     1  UNL1        0.1285
      9 O          61.9403   89.9531   13.0389 O.3     1  UNL1       -0.3830
     10 H          61.4192   89.8394   12.2287 H       1  UNL1        0.2104
     11 N          62.4943   90.8337   10.2250 N.3     1  UNL1       -0.2915
     12 H          63.0171   90.3842    9.4733 H       1  UNL1        0.1236
     13 C          61.3083   89.9607   10.5098 C.3     1  UNL1        0.0958
     14 C          60.7896   89.0319    9.4523 C.ar    1  UNL1       -0.0034
     15 C          59.7439   89.5046    8.4863 C.ar    1  UNL1       -0.0027
     16 C          59.2251   88.5758    7.4288 C.ar    1  UNL1        0.0028
     17 C          59.7521   87.1743    7.3374 C.ar    1  UNL1        0.0372
     18 C          60.7977   86.7017    8.3034 C.ar    1  UNL1        0.1465
     19 C          61.3165   87.6305    9.3608 C.ar    1  UNL1        0.0343
     20 O          61.3247   85.3002    8.2119 O.3     1  UNL1       -0.4045
     21 C          62.1815   84.8955    7.0491 C.3     1  UNL1        0.5753
     22 F          63.0383   84.4908    5.8863 F       1  UNL1       -0.1328
     23 F          63.3942   85.4177    7.7609 F       1  UNL1       -0.1328
     24 F          60.9688   84.3733    6.3373 F       1  UNL1       -0.1328
     25 C          63.9098   90.5654   15.2175 C.3     1  UNL1        0.0307
     26 N          63.4907   85.2554   16.4973 N.pl3   1  UNL1       -0.3529
     27 C          63.6141   86.1808   16.1861 C.ar    1  UNL1        0.1037
     28 C          63.0217   87.1963   17.1176 C.ar    1  UNL1        0.1556
     29 F          62.3307   86.7503   18.3721 F       1  UNL1       -0.2028
     30 C          63.1202   88.6578   16.7948 C.ar    1  UNL1        0.0268
     31 C          63.8112   89.1039   15.5404 C.ar    1  UNL1       -0.0167
     32 C          64.4037   88.0884   14.6089 C.ar    1  UNL1        0.0341
     33 C          64.3051   86.6269   14.9317 C.ar    1  UNL1        0.1538
     34 H          63.0177   85.0793   17.3426 H       1  UNL1        0.1425
     35 H          63.8402   84.5057   15.9634 H       1  UNL1        0.1425
     36 O          64.8976   85.6114   14.0001 O.3     1  UNL1       -0.4621
     37 C          64.0004   84.7219   13.1915 C.3     1  UNL1        0.3551
     38 C          62.7382   85.2717   12.5959 C.3     1  UNL1        0.4428
     39 F          61.4761   85.8215   12.0003 F       1  UNL1       -0.1661
     40 F          61.9277   84.4144   13.5221 F       1  UNL1       -0.1661
     41 F          63.1652   85.8740   11.9450 F       1  UNL1       -0.1661
     42 C          64.3653   83.2827   12.9785 C.3     1  UNL1        0.4428
     43 F          64.7303   81.8434   12.7654 F       1  UNL1       -0.1661
     44 F          64.3588   83.0615   14.4621 F       1  UNL1       -0.1661
     45 F          64.3719   83.5039   11.4950 F       1  UNL1       -0.1661
@<TRIPOS>BOND
     1    26    27    1
     2    27    28   ar
     3    28    29    1
     4    28    30   ar
     5    30    31   ar
     6    31    25    1
     7     1    25    1
     8     1     2    1
     9     2     3    1
    10     3     4    2
    11     3     5    2
    12     3     6    1
    13     6     7    1
    14     7    11    1
    15    11    13    1
    16    13    14    1
    17    14    15   ar
    18    15    16   ar
    19    16    17   ar
    20    17    18   ar
    21    18    20    1
    22    20    21    1
    23    21    22    1
    24    21    23    1
    25    21    24    1
    26    18    19   ar
    27     7     8    1
    28     8     9    1
    29    31    32   ar
    30    32    33   ar
    31    33    36    1
    32    36    37    1
    33    37    38    1
    34    38    39    1
    35    38    40    1
    36    38    41    1
    37    37    42    1
    38    42    43    1
    39    42    44    1
    40    42    45    1
    41    33    27   ar
    42     8     1    1
    43    19    14   ar
    44    26    34    1
    45    26    35    1
    46    11    12    1
    47     9    10    1
@<TRIPOS>MOLECULE
*****
 45 47 0 0 0
SMALL
GASTEIGER

@<TRIPOS>ATOM
      1 C          61.9657   85.9441    9.8992 C.3     1  UNL1        0.0562
      2 C          61.0410   85.7312    8.7373 C.3     1  UNL1        0.1536
      3 S          60.0672   86.8035    8.3476 S.O2    1  UNL1       -0.0085
      4 O          58.9793   87.5153    7.5994 O.2     1  UNL1       -0.1729
      5 O          59.7386   85.7656    7.3158 O.2     1  UNL1       -0.1729
      6 C          60.0180   88.0887    9.1195 C.3     1  UNL1        0.1689
      7 C          60.9426   88.3016   10.2813 C.3     1  UNL1        0.1054
      8 C          61.9165   87.2293   10.6711 C.3     1  UNL1        0.1285
      9 O          62.8411   87.4422   11.8329 O.3     1  UNL1       -0.3830
     10 H          62.6803   88.3179   12.2178 H       1  UNL1        0.2104
     11 N          60.8935   89.5867   11.0533 N.3     1  UNL1       -0.2915
     12 H          59.9760   89.6288   11.4969 H       1  UNL1        0.1236
     13 C          61.9061   89.8562   12.1265 C.3     1  UNL1        0.0958
     14 C          63.0449   90.7966   11.8641 C.ar    1  UNL1       -0.0034
     15 C          63.3609   91.2184   10.4597 C.ar    1  UNL1       -0.0027
     16 C          64.4996   92.1588   10.1973 C.ar    1  UNL1        0.0028
     17 C          65.3224   92.6775   11.3393 C.ar    1  UNL1        0.0372
     18 C          65.0064   92.2557   12.7436 C.ar    1  UNL1        0.1465
     19 C          63.8676   91.3153   13.0060 C.ar    1  UNL1        0.0343
     20 O          65.8291   92.7743   13.8856 O.3     1  UNL1       -0.4045
     21 C          66.7779   91.8600   14.6024 C.3     1  UNL1        0.5753
     22 F          67.7267   90.9456   15.3192 F       1  UNL1       -0.1328
     23 F          65.7939   91.7196   15.7258 F       1  UNL1       -0.1328
     24 F          67.7619   92.0003   13.4790 F       1  UNL1       -0.1328
     25 C          62.9395   84.8719   10.2889 C.3     1  UNL1        0.0307
     26 N          62.2857   82.0479   14.9373 N.pl3   1  UNL1       -0.3529
     27 C          62.3964   82.6372   14.1569 C.ar    1  UNL1        0.1037
     28 C          62.5644   81.8822   12.8717 C.ar    1  UNL1        0.1556
     29 F          62.5513   80.3822   12.8758 F       1  UNL1       -0.2028
     30 C          62.7454   82.6271   11.5824 C.ar    1  UNL1        0.0268
     31 C          62.7584   84.1270   11.5783 C.ar    1  UNL1       -0.0167
     32 C          62.5905   84.8820   12.8634 C.ar    1  UNL1        0.0341
     33 C          62.4095   84.1371   14.1527 C.ar    1  UNL1        0.1538
     34 H          62.2933   81.0703   14.8211 H       1  UNL1        0.1425
     35 H          62.1673   82.4361   15.8343 H       1  UNL1        0.1425
     36 O          62.2415   84.8921   15.4380 O.3     1  UNL1       -0.4621
     37 C          63.3461   85.7745   15.9393 C.3     1  UNL1        0.3551
     38 C          64.7068   85.7024   15.3120 C.3     1  UNL1        0.4428
     39 F          66.0674   85.6304   14.6847 F       1  UNL1       -0.1661
     40 F          64.3465   86.8376   14.4001 F       1  UNL1       -0.1661
     41 F          65.0503   84.9574   15.8557 F       1  UNL1       -0.1661
     42 C          63.0901   86.7289   17.0678 C.3     1  UNL1        0.4428
     43 F          62.8341   87.6833   18.1963 F       1  UNL1       -0.1661
     44 F          62.4790   85.6177   17.8689 F       1  UNL1       -0.1661
     45 F          63.7012   87.8401   16.2667 F       1  UNL1       -0.1661
@<TRIPOS>BOND
     1    26    27    1
     2    27    28   ar
     3    28    29    1
     4    28    30   ar
     5    30    31   ar
     6    31    25    1
     7     1    25    1
     8     1     2    1
     9     2     3    1
    10     3     4    2
    11     3     5    2
    12     3     6    1
    13     6     7    1
    14     7    11    1
    15    11    13    1
    16    13    14    1
    17    14    15   ar
    18    15    16   ar
    19    16    17   ar
    20    17    18   ar
    21    18    20    1
    22    20    21    1
    23    21    22    1
    24    21    23    1
    25    21    24    1
    26    18    19   ar
    27     7     8    1
    28     8     9    1
    29    31    32   ar
    30    32    33   ar
    31    33    36    1
    32    36    37    1
    33    37    38    1
    34    38    39    1
    35    38    40    1
    36    38    41    1
    37    37    42    1
    38    42    43    1
    39    42    44    1
    40    42    45    1
    41    33    27   ar
    42     8     1    1
    43    19    14   ar
    44    26    34    1
    45    26    35    1
    46    11    12    1
    47     9    10    1
@<TRIPOS>MOLECULE
*****
 45 47 0 0 0
SMALL
GASTEIGER

@<TRIPOS>ATOM
      1 C          62.3091   89.5037   12.3057 C.3     1  UNL1        0.0562
      2 C          61.3011   90.2057   11.4448 C.3     1  UNL1        0.1536
      3 S          60.7493   89.5238   10.2281 S.O2    1  UNL1       -0.0085
      4 O          59.9417   89.2950    8.9849 O.2     1  UNL1       -0.1729
      5 O          60.0126   90.8282   10.1523 O.2     1  UNL1       -0.1729
      6 C          61.2055   88.1399    9.8721 C.3     1  UNL1        0.1689
      7 C          62.2135   87.4379   10.7330 C.3     1  UNL1        0.1054
      8 C          62.7653   88.1197   11.9498 C.3     1  UNL1        0.1285
      9 O          63.7733   87.4177   12.8106 O.3     1  UNL1       -0.3830
     10 H          63.9569   86.5392   12.4426 H       1  UNL1        0.2104
     11 N          62.6697   86.0540   10.3770 N.3     1  UNL1       -0.2915
     12 H          63.6322   85.9682   10.7034 H       1  UNL1        0.1236
     13 C          61.9267   84.8612   10.9017 C.3     1  UNL1        0.0958
     14 C          62.5666   83.9689   11.9235 C.ar    1  UNL1       -0.0034
     15 C          62.8889   82.5449   11.5791 C.ar    1  UNL1       -0.0027
     16 C          63.5289   81.6526   12.6010 C.ar    1  UNL1        0.0028
     17 C          63.8464   82.1842   13.9673 C.ar    1  UNL1        0.0372
     18 C          63.5241   83.6080   14.3116 C.ar    1  UNL1        0.1465
     19 C          62.8842   84.5004   13.2897 C.ar    1  UNL1        0.0343
     20 O          63.8417   84.1396   15.6779 O.3     1  UNL1       -0.4045
     21 C          63.7653   85.6136   15.9455 C.3     1  UNL1        0.5753
     22 F          63.6889   87.0875   16.2132 F       1  UNL1       -0.1328
     23 F          62.4473   85.4200   16.6352 F       1  UNL1       -0.1328
     24 F          65.0832   85.8072   15.2559 F       1  UNL1       -0.1328
     25 C          62.8609   90.1855   13.5225 C.3     1  UNL1        0.0307
     26 N          67.5651   92.9817   13.2754 N.pl3   1  UNL1       -0.3529
     27 C          66.6891   92.5344   13.2440 C.ar    1  UNL1        0.1037
     28 C          66.5389   91.4658   14.2858 C.ar    1  UNL1        0.1556
     29 F          67.6649   91.1801   15.2348 F       1  UNL1       -0.2028
     30 C          65.2629   90.6828   14.3786 C.ar    1  UNL1        0.0268
     31 C          64.1369   90.9685   13.4297 C.ar    1  UNL1       -0.0167
     32 C          64.2871   92.0371   12.3878 C.ar    1  UNL1        0.0341
     33 C          65.5631   92.8201   12.2950 C.ar    1  UNL1        0.1538
     34 H          68.2327   92.7101   13.9461 H       1  UNL1        0.1425
     35 H          67.7739   93.7008   12.6363 H       1  UNL1        0.1425
     36 O          65.7132   93.8887   11.2531 O.3     1  UNL1       -0.4621
     37 C          66.8181   93.8009   10.2424 C.3     1  UNL1        0.3551
     38 C          67.4608   92.4781    9.9468 C.3     1  UNL1        0.4428
     39 F          68.1035   91.1554    9.6513 F       1  UNL1       -0.1661
     40 F          68.8155   93.1143   10.0454 F       1  UNL1       -0.1661
     41 F          66.6299   91.9580    9.8590 F       1  UNL1       -0.1661
     42 C          67.2803   95.0357    9.5272 C.3     1  UNL1        0.4428
     43 F          67.7426   96.2707    8.8121 F       1  UNL1       -0.1661
     44 F          67.3402   94.2679    8.2401 F       1  UNL1       -0.1661
     45 F          67.2205   95.8036   10.8144 F       1  UNL1       -0.1661
@<TRIPOS>BOND
     1    26    27    1
     2    27    28   ar
     3    28    29    1
     4    28    30   ar
     5    30    31   ar
     6    31    25    1
     7     1    25    1
     8     1     2    1
     9     2     3    1
    10     3     4    2
    11     3     5    2
    12     3     6    1
    13     6     7    1
    14     7    11    1
    15    11    13    1
    16    13    14    1
    17    14    15   ar
    18    15    16   ar
    19    16    17   ar
    20    17    18   ar
    21    18    20    1
    22    20    21    1
    23    21    22    1
    24    21    23    1
    25    21    24    1
    26    18    19   ar
    27     7     8    1
    28     8     9    1
    29    31    32   ar
    30    32    33   ar
    31    33    36    1
    32    36    37    1
    33    37    38    1
    34    38    39    1
    35    38    40    1
    36    38    41    1
    37    37    42    1
    38    42    43    1
    39    42    44    1
    40    42    45    1
    41    33    27   ar
    42     8     1    1
    43    19    14   ar
    44    26    34    1
    45    26    35    1
    46    11    12    1
    47     9    10    1
@<TRIPOS>MOLECULE
*****
 45 47 0 0 0
SMALL
GASTEIGER

@<TRIPOS>ATOM
      1 C          64.0625   90.9179   13.8162 C.3     1  UNL1        0.0562
      2 C          65.3421   91.6292   13.4893 C.3     1  UNL1        0.1536
      3 S          65.6073   92.0889   12.0864 S.O2    1  UNL1       -0.0085
      4 O          66.3095   92.7111   10.9160 O.2     1  UNL1       -0.1729
      5 O          66.8655   92.5564   12.7560 O.2     1  UNL1       -0.1729
      6 C          64.5930   91.8375   11.0103 C.3     1  UNL1        0.1689
      7 C          63.3135   91.1263   11.3371 C.3     1  UNL1        0.1054
      8 C          63.0482   90.6664   12.7401 C.3     1  UNL1        0.1285
      9 O          61.7686   89.9552   13.0669 O.3     1  UNL1       -0.3830
     10 H          61.2291   89.8752   12.2647 H       1  UNL1        0.2104
     11 N          62.2992   90.8748   10.2610 N.3     1  UNL1       -0.2915
     12 H          62.7814   90.3777    9.5122 H       1  UNL1        0.1236
     13 C          61.0566   90.0933   10.5694 C.3     1  UNL1        0.0958
     14 C          60.4849   89.1585    9.5450 C.ar    1  UNL1       -0.0034
     15 C          60.4110   87.6877    9.8300 C.ar    1  UNL1       -0.0027
     16 C          59.8393   86.7530    8.8056 C.ar    1  UNL1        0.0028
     17 C          59.3415   87.2891    7.4961 C.ar    1  UNL1        0.0372
     18 C          59.4154   88.7599    7.2110 C.ar    1  UNL1        0.1465
     19 C          59.9871   89.6946    8.2355 C.ar    1  UNL1        0.0343
     20 O          58.9175   89.2960    5.9015 O.3     1  UNL1       -0.4045
     21 C          59.0745   90.7525    5.5791 C.3     1  UNL1        0.5753
     22 F          59.2315   92.2090    5.2566 F       1  UNL1       -0.1328
     23 F          60.5375   90.5389    5.3260 F       1  UNL1       -0.1328
     24 F          57.6115   90.9662    5.8321 F       1  UNL1       -0.1328
     25 C          63.7972   90.4581   15.2191 C.3     1  UNL1        0.0307
     26 N          63.5177   85.1281   16.4531 N.pl3   1  UNL1       -0.3529
     27 C          63.6142   86.0589   16.1484 C.ar    1  UNL1        0.1037
     28 C          63.0296   87.0531   17.1076 C.ar    1  UNL1        0.1556
     29 F          62.3840   86.5808   18.3765 F       1  UNL1       -0.2028
     30 C          63.0906   88.5195   16.7978 C.ar    1  UNL1        0.0268
     31 C          63.7362   88.9917   15.5289 C.ar    1  UNL1       -0.0167
     32 C          64.3208   87.9976   14.5697 C.ar    1  UNL1        0.0341
     33 C          64.2598   86.5312   14.8795 C.ar    1  UNL1        0.1538
     34 H          63.0729   84.9342   17.3097 H       1  UNL1        0.1425
     35 H          63.8658   84.3909   15.9012 H       1  UNL1        0.1425
     36 O          64.8444   85.5370   13.9203 O.3     1  UNL1       -0.4621
     37 C          63.9436   84.6097   13.1596 C.3     1  UNL1        0.3551
     38 C          62.6402   85.1115   12.6124 C.3     1  UNL1        0.4428
     39 F          61.3368   85.6133   12.0653 F       1  UNL1       -0.1661
     40 F          63.3808   85.9132   11.5835 F       1  UNL1       -0.1661
     41 F          62.0536   84.6295   13.2388 F       1  UNL1       -0.1661
     42 C          64.3462   83.1807   12.9461 C.3     1  UNL1        0.4428
     43 F          64.7489   81.7515   12.7325 F       1  UNL1       -0.1661
     44 F          63.9719   82.8634   14.3635 F       1  UNL1       -0.1661
     45 F          64.7205   83.4979   11.5286 F       1  UNL1       -0.1661
@<TRIPOS>BOND
     1    26    27    1
     2    27    28   ar
     3    28    29    1
     4    28    30   ar
     5    30    31   ar
     6    31    25    1
     7     1    25    1
     8     1     2    1
     9     2     3    1
    10     3     4    2
    11     3     5    2
    12     3     6    1
    13     6     7    1
    14     7    11    1
    15    11    13    1
    16    13    14    1
    17    14    15   ar
    18    15    16   ar
    19    16    17   ar
    20    17    18   ar
    21    18    20    1
    22    20    21    1
    23    21    22    1
    24    21    23    1
    25    21    24    1
    26    18    19   ar
    27     7     8    1
    28     8     9    1
    29    31    32   ar
    30    32    33   ar
    31    33    36    1
    32    36    37    1
    33    37    38    1
    34    38    39    1
    35    38    40    1
    36    38    41    1
    37    37    42    1
    38    42    43    1
    39    42    44    1
    40    42    45    1
    41    33    27   ar
    42     8     1    1
    43    19    14   ar
    44    26    34    1
    45    26    35    1
    46    11    12    1
    47     9    10    1
@<TRIPOS>MOLECULE
*****
 45 47 0 0 0
SMALL
GASTEIGER

@<TRIPOS>ATOM
      1 C          61.0098   87.6360   10.9063 C.3     1  UNL1        0.0562
      2 C          59.7973   88.2158   11.5725 C.3     1  UNL1        0.1536
      3 S          59.5741   89.6990   11.5643 S.O2    1  UNL1       -0.0085
      4 O          58.9296   91.0289   11.8213 O.2     1  UNL1       -0.1729
      5 O          58.3610   89.2573   12.3280 O.2     1  UNL1       -0.1729
      6 C          60.5634   90.6026   10.8898 C.3     1  UNL1        0.1689
      7 C          61.7758   90.0229   10.2236 C.3     1  UNL1        0.1054
      8 C          61.9990   88.5396   10.2318 C.3     1  UNL1        0.1285
      9 O          63.2115   87.9599    9.5656 O.3     1  UNL1       -0.3830
     10 H          63.7425   88.6751    9.1816 H       1  UNL1        0.2104
     11 N          62.7651   90.9265    9.5491 N.3     1  UNL1       -0.2915
     12 H          62.2632   91.4079    8.8030 H       1  UNL1        0.1236
     13 C          63.4790   91.9813   10.3413 C.3     1  UNL1        0.0958
     14 C          64.1980   91.6122   11.6049 C.ar    1  UNL1       -0.0034
     15 C          63.6082   90.5918   12.5328 C.ar    1  UNL1       -0.0027
     16 C          64.3272   90.2226   13.7964 C.ar    1  UNL1        0.0028
     17 C          65.6361   90.8739   14.1322 C.ar    1  UNL1        0.0372
     18 C          66.2259   91.8943   13.2043 C.ar    1  UNL1        0.1465
     19 C          65.5069   92.2634   11.9407 C.ar    1  UNL1        0.0343
     20 O          67.5348   92.5456   13.5401 O.3     1  UNL1       -0.4045
     21 C          67.7321   93.1843   14.8829 C.3     1  UNL1        0.5753
     22 F          67.9293   93.8230   16.2257 F       1  UNL1       -0.1328
     23 F          66.7288   94.2413   14.5275 F       1  UNL1       -0.1328
     24 F          68.7353   92.1273   15.2383 F       1  UNL1       -0.1328
     25 C          61.2329   86.1528   10.9145 C.3     1  UNL1        0.0307
     26 N          65.1649   84.0963   14.1270 N.pl3   1  UNL1       -0.3529
     27 C          64.4516   84.3760   13.5094 C.ar    1  UNL1        0.1037
     28 C          64.0742   85.8194   13.6651 C.ar    1  UNL1        0.1556
     29 F          64.7698   86.6706   14.6858 F       1  UNL1       -0.2028
     30 C          63.0013   86.4116   12.8001 C.ar    1  UNL1        0.0268
     31 C          62.3058   85.5605   11.7795 C.ar    1  UNL1       -0.0167
     32 C          62.6831   84.1172   11.6238 C.ar    1  UNL1        0.0341
     33 C          63.7560   83.5249   12.4888 C.ar    1  UNL1        0.1538
     34 H          65.5510   84.7449   14.7591 H       1  UNL1        0.1425
     35 H          65.4924   83.1680   14.1127 H       1  UNL1        0.1425
     36 O          64.1333   82.0815   12.3330 O.3     1  UNL1       -0.4621
     37 C          63.0649   81.0373   12.1983 C.3     1  UNL1        0.3551
     38 C          62.0883   80.8151   13.3151 C.3     1  UNL1        0.4428
     39 F          61.1118   80.5929   14.4318 F       1  UNL1       -0.1661
     40 F          63.1397   80.0745   14.0871 F       1  UNL1       -0.1661
     41 F          61.3255   81.2796   12.9016 F       1  UNL1       -0.1661
     42 C          62.9730   80.2154   10.9470 C.3     1  UNL1        0.4428
     43 F          62.8810   79.3934    9.6955 F       1  UNL1       -0.1661
     44 F          63.4351   81.3923   10.1400 F       1  UNL1       -0.1661
     45 F          62.5108   79.0385   11.7539 F       1  UNL1       -0.1661
@<TRIPOS>BOND
     1    26    27    1
     2    27    28   ar
     3    28    29    1
     4    28    30   ar
     5    30    31   ar
     6    31    25    1
     7     1    25    1
     8     1     2    1
     9     2     3    1
    10     3     4    2
    11     3     5    2
    12     3     6    1
    13     6     7    1
    14     7    11    1
    15    11    13    1
    16    13    14    1
    17    14    15   ar
    18    15    16   ar
    19    16    17   ar
    20    17    18   ar
    21    18    20    1
    22    20    21    1
    23    21    22    1
    24    21    23    1
    25    21    24    1
    26    18    19   ar
    27     7     8    1
    28     8     9    1
    29    31    32   ar
    30    32    33   ar
    31    33    36    1
    32    36    37    1
    33    37    38    1
    34    38    39    1
    35    38    40    1
    36    38    41    1
    37    37    42    1
    38    42    43    1
    39    42    44    1
    40    42    45    1
    41    33    27   ar
    42     8     1    1
    43    19    14   ar
    44    26    34    1
    45    26    35    1
    46    11    12    1
    47     9    10    1
@<TRIPOS>MOLECULE
*****
 45 47 0 0 0
SMALL
GASTEIGER

@<TRIPOS>ATOM
      1 C          61.7465   89.3948   10.9019 C.3     1  UNL1        0.0562
      2 C          60.8076   89.5847    9.7475 C.3     1  UNL1        0.1536
      3 S          60.5085   88.4384    8.8276 S.O2    1  UNL1       -0.0085
      4 O          59.9158   87.6625    7.6889 O.2     1  UNL1       -0.1729
      5 O          59.6630   89.5052    8.1978 O.2     1  UNL1       -0.1729
      6 C          61.1482   87.1020    9.0621 C.3     1  UNL1        0.1689
      7 C          62.0870   86.9120   10.2164 C.3     1  UNL1        0.1054
      8 C          62.3862   88.0585   11.1364 C.3     1  UNL1        0.1285
      9 O          63.3250   87.8685   12.2907 O.3     1  UNL1       -0.3830
     10 H          63.6472   86.9536   12.2982 H       1  UNL1        0.2104
     11 N          62.7267   85.5757   10.4508 N.3     1  UNL1       -0.2915
     12 H          63.6214   85.7535   10.9072 H       1  UNL1        0.1236
     13 C          62.0195   84.5396   11.2732 C.3     1  UNL1        0.0958
     14 C          62.6732   83.9844   12.5038 C.ar    1  UNL1       -0.0034
     15 C          62.7820   82.5000   12.6905 C.ar    1  UNL1       -0.0027
     16 C          63.4357   81.9448   13.9212 C.ar    1  UNL1        0.0028
     17 C          63.9807   82.8740   14.9651 C.ar    1  UNL1        0.0372
     18 C          63.8719   84.3583   14.7783 C.ar    1  UNL1        0.1465
     19 C          63.2182   84.9135   13.5477 C.ar    1  UNL1        0.0343
     20 O          64.4168   85.2876   15.8223 O.3     1  UNL1       -0.4045
     21 C          64.0195   86.7340   15.8198 C.3     1  UNL1        0.5753
     22 F          63.6223   88.1804   15.8173 F       1  UNL1       -0.1328
     23 F          65.1082   87.0313   14.8316 F       1  UNL1       -0.1328
     24 F          62.9309   86.4367   16.8080 F       1  UNL1       -0.1328
     25 C          62.0456   90.5412   11.8219 C.3     1  UNL1        0.0307
     26 N          67.0552   92.7577   11.8414 N.pl3   1  UNL1       -0.3529
     27 C          66.1765   92.3230   11.9271 C.ar    1  UNL1        0.1037
     28 C          65.2943   92.5446   10.7344 C.ar    1  UNL1        0.1556
     29 F          65.7890   93.3601    9.5767 F       1  UNL1       -0.2028
     30 C          63.9173   91.9506   10.6993 C.ar    1  UNL1        0.0268
     31 C          63.4225   91.1351   11.8569 C.ar    1  UNL1       -0.0167
     32 C          64.3047   90.9136   13.0496 C.ar    1  UNL1        0.0341
     33 C          65.6817   91.5075   13.0847 C.ar    1  UNL1        0.1538
     34 H          67.2732   93.2717   11.0305 H       1  UNL1        0.1425
     35 H          67.7164   92.6785   12.5665 H       1  UNL1        0.1425
     36 O          66.5639   91.2859   14.2775 O.3     1  UNL1       -0.4621
     37 C          66.4937   92.2230   15.4467 C.3     1  UNL1        0.3551
     38 C          65.3010   92.1996   16.3560 C.3     1  UNL1        0.4428
     39 F          64.1083   92.1762   17.2653 F       1  UNL1       -0.1661
     40 F          64.8914   90.8746   15.7846 F       1  UNL1       -0.1661
     41 F          65.4724   93.0607   16.8009 F       1  UNL1       -0.1661
     42 C          67.6162   93.1834   15.7065 C.3     1  UNL1        0.4428
     43 F          68.7388   94.1440   15.9663 F       1  UNL1       -0.1661
     44 F          68.2464   92.1941   16.6414 F       1  UNL1       -0.1661
     45 F          66.9861   94.1728   14.7716 F       1  UNL1       -0.1661
@<TRIPOS>BOND
     1    26    27    1
     2    27    28   ar
     3    28    29    1
     4    28    30   ar
     5    30    31   ar
     6    31    25    1
     7     1    25    1
     8     1     2    1
     9     2     3    1
    10     3     4    2
    11     3     5    2
    12     3     6    1
    13     6     7    1
    14     7    11    1
    15    11    13    1
    16    13    14    1
    17    14    15   ar
    18    15    16   ar
    19    16    17   ar
    20    17    18   ar
    21    18    20    1
    22    20    21    1
    23    21    22    1
    24    21    23    1
    25    21    24    1
    26    18    19   ar
    27     7     8    1
    28     8     9    1
    29    31    32   ar
    30    32    33   ar
    31    33    36    1
    32    36    37    1
    33    37    38    1
    34    38    39    1
    35    38    40    1
    36    38    41    1
    37    37    42    1
    38    42    43    1
    39    42    44    1
    40    42    45    1
    41    33    27   ar
    42     8     1    1
    43    19    14   ar
    44    26    34    1
    45    26    35    1
    46    11    12    1
    47     9    10    1
@<TRIPOS>MOLECULE
*****
 45 47 0 0 0
SMALL
GASTEIGER

@<TRIPOS>ATOM
      1 C          62.0205   86.2294    9.8480 C.3     1  UNL1        0.0562
      2 C          62.0254   87.3104   10.8879 C.3     1  UNL1        0.1536
      3 S          61.1921   88.5423   10.6930 S.O2    1  UNL1       -0.0085
      4 O          60.5755   89.8836   10.9590 O.2     1  UNL1       -0.1729
      5 O          61.8162   88.8572   12.0201 O.2     1  UNL1       -0.1729
      6 C          60.3539   88.6932    9.4582 C.3     1  UNL1        0.1689
      7 C          60.3490   87.6122    8.4183 C.3     1  UNL1        0.1054
      8 C          61.1823   86.3803    8.6132 C.3     1  UNL1        0.1285
      9 O          61.1774   85.2993    7.5733 O.3     1  UNL1       -0.3830
     10 H          60.5879   85.5530    6.8460 H       1  UNL1        0.2104
     11 N          59.5108   87.7631    7.1836 N.3     1  UNL1       -0.2915
     12 H          58.9292   86.9277    7.1186 H       1  UNL1        0.1236
     13 C          58.5938   88.9414    7.0389 C.3     1  UNL1        0.0958
     14 C          58.9187   90.0286    6.0579 C.ar    1  UNL1       -0.0034
     15 C          57.8174   90.8529    5.4599 C.ar    1  UNL1       -0.0027
     16 C          58.1423   91.9401    4.4789 C.ar    1  UNL1        0.0028
     17 C          59.5686   92.2030    4.0959 C.ar    1  UNL1        0.0372
     18 C          60.6699   91.3787    4.6938 C.ar    1  UNL1        0.1465
     19 C          60.3449   90.2915    5.6748 C.ar    1  UNL1        0.0343
     20 O          62.0962   91.6416    4.3108 O.3     1  UNL1       -0.4045
     21 C          62.4818   91.7194    2.8633 C.3     1  UNL1        0.5753
     22 F          62.8675   91.7972    1.4158 F       1  UNL1       -0.1328
     23 F          61.8746   93.0881    2.7751 F       1  UNL1       -0.1328
     24 F          63.0891   90.3507    2.9515 F       1  UNL1       -0.1328
     25 C          62.8538   84.9975   10.0429 C.3     1  UNL1        0.0307
     26 N          62.4513   82.0068   14.6149 N.pl3   1  UNL1       -0.3529
     27 C          62.5035   82.6230   13.8493 C.ar    1  UNL1        0.1037
     28 C          62.8200   81.9281   12.5583 C.ar    1  UNL1        0.1556
     29 F          63.0199   80.4416   12.5361 F       1  UNL1       -0.2028
     30 C          62.9368   82.7196   11.2895 C.ar    1  UNL1        0.0268
     31 C          62.7370   84.2060   11.3117 C.ar    1  UNL1       -0.0167
     32 C          62.4204   84.9009   12.6027 C.ar    1  UNL1        0.0341
     33 C          62.3036   84.1094   13.8715 C.ar    1  UNL1        0.1538
     34 H          62.6015   81.0430   14.4822 H       1  UNL1        0.1425
     35 H          62.2488   82.3543   15.5136 H       1  UNL1        0.1425
     36 O          61.9870   84.8045   15.1626 O.3     1  UNL1       -0.4621
     37 C          63.0806   85.4716   15.9430 C.3     1  UNL1        0.3551
     38 C          62.7925   86.0430   17.2997 C.3     1  UNL1        0.4428
     39 F          62.5044   86.6145   18.6563 F       1  UNL1       -0.1661
     40 F          61.3255   86.0454   16.9872 F       1  UNL1       -0.1661
     41 F          63.7249   86.0872   17.6117 F       1  UNL1       -0.1661
     42 C          64.4622   85.5672   15.3669 C.3     1  UNL1        0.4428
     43 F          65.8438   85.6629   14.7907 F       1  UNL1       -0.1661
     44 F          64.7181   84.1380   15.7434 F       1  UNL1       -0.1661
     45 F          64.2062   86.9964   14.9904 F       1  UNL1       -0.1661
@<TRIPOS>BOND
     1    26    27    1
     2    27    28   ar
     3    28    29    1
     4    28    30   ar
     5    30    31   ar
     6    31    25    1
     7     1    25    1
     8     1     2    1
     9     2     3    1
    10     3     4    2
    11     3     5    2
    12     3     6    1
    13     6     7    1
    14     7    11    1
    15    11    13    1
    16    13    14    1
    17    14    15   ar
    18    15    16   ar
    19    16    17   ar
    20    17    18   ar
    21    18    20    1
    22    20    21    1
    23    21    22    1
    24    21    23    1
    25    21    24    1
    26    18    19   ar
    27     7     8    1
    28     8     9    1
    29    31    32   ar
    30    32    33   ar
    31    33    36    1
    32    36    37    1
    33    37    38    1
    34    38    39    1
    35    38    40    1
    36    38    41    1
    37    37    42    1
    38    42    43    1
    39    42    44    1
    40    42    45    1
    41    33    27   ar
    42     8     1    1
    43    19    14   ar
    44    26    34    1
    45    26    35    1
    46    11    12    1
    47     9    10    1
