@<TRIPOS>MOLECULE
*****
 31 34 0 0 0
SMALL
GASTEIGER

@<TRIPOS>ATOM
      1 C          61.5864   85.6775   10.4938 C.3     1  UNL1        0.0232
      2 C          62.4297   86.2873   11.5741 C.3     1  UNL1        0.0927
      3 C          62.6181   87.7744   11.6289 C.3     1  UNL1        0.1131
      4 N          63.4614   88.3842   12.7091 N.am    1  UNL1       -0.2761
      5 C          63.6499   89.8714   12.7639 C.2     1  UNL1        0.2258
      6 O          62.9949   90.7487   11.7385 O.2     1  UNL1       -0.2749
      7 C          64.1164   87.5070   13.7345 C.3     1  UNL1        0.1148
      8 C          63.9279   86.0199   13.6797 C.3     1  UNL1        0.1123
      9 N          63.0846   85.4101   12.5994 N.pl3   1  UNL1       -0.3056
     10 C          62.8962   83.9229   12.5446 C.ar    1  UNL1        0.0524
     11 C          62.2984   83.1991   13.7146 C.ar    1  UNL1        0.0443
     12 C          62.1100   81.7120   13.6598 C.ar    1  UNL1        0.1436
     13 F          61.5123   80.9881   14.8297 F       1  UNL1       -0.2041
     14 C          62.5194   80.9487   12.4351 C.ar    1  UNL1        0.0593
     15 C          63.1172   81.6725   11.2652 C.ar    1  UNL1        0.1436
     16 F          63.5265   80.9093   10.0405 F       1  UNL1       -0.2041
     17 C          63.3056   83.1597   11.3200 C.ar    1  UNL1        0.0443
     18 C          64.4932   90.4812   13.8441 C.3     1  UNL1        0.0874
     19 C          64.6824   91.9682   13.8984 C.3     1  UNL1        0.0365
     20 C          66.0433   92.5421   14.1601 C.3     1  UNL1        0.1275
     21 N          67.4263   93.1207   14.1090 N.am    1  UNL1       -0.2839
     22 C          67.8913   93.3355   15.5189 C.2     1  UNL1        0.3068
     23 O          69.2188   93.8975   15.9335 O.2     1  UNL1       -0.2524
     24 N          66.7957   92.8895   16.4413 N.am    1  UNL1       -0.2384
     25 C          65.6536   92.3992   15.6016 C.2     1  UNL1        0.2451
     26 O          64.3506   91.8606   16.1134 O.2     1  UNL1       -0.2730
     27 H          67.9388   93.3239   13.2933 H       1  UNL1        0.1513
     28 H          66.8216   92.9143   17.4251 H       1  UNL1        0.1591
     29 C          66.1485   92.5650   12.6640 C.3     1  UNL1        0.0249
     30 C          65.5256   92.8095   11.3215 C.3     1  UNL1        0.0021
     31 C          66.9537   92.3601   11.4151 C.3     1  UNL1        0.0021
@<TRIPOS>BOND
     1     2     1    1
     2     2     3    1
     3     3     4    1
     4     4     5   am
     5     5     6    2
     6     5    18    1
     7    18    19    1
     8    20    19    1
     9    20    29    1
    10    29    30    1
    11    30    31    1
    12    20    21    1
    13    21    22   am
    14    22    23    2
    15    22    24   am
    16    24    25   am
    17    25    26    2
    18     4     7    1
    19     7     8    1
    20     8     9    1
    21     9    10    1
    22    10    11   ar
    23    11    12   ar
    24    12    13    1
    25    12    14   ar
    26    14    15   ar
    27    15    16    1
    28    15    17   ar
    29     9     2    1
    30    17    10   ar
    31    25    20    1
    32    31    29    1
    33    21    27    1
    34    24    28    1
@<TRIPOS>MOLECULE
*****
 31 34 0 0 0
SMALL
GASTEIGER

@<TRIPOS>ATOM
      1 C          63.9862   85.3489   15.9005 C.3     1  UNL1        0.0232
      2 C          63.8599   86.3884   14.8264 C.3     1  UNL1        0.0927
      3 C          64.1157   87.8315   15.1455 C.3     1  UNL1        0.1131
      4 N          63.9894   88.8709   14.0714 N.am    1  UNL1       -0.2761
      5 C          64.2452   90.3142   14.3906 C.2     1  UNL1        0.2258
      6 O          64.6272   90.7179   15.7838 O.2     1  UNL1       -0.2749
      7 C          63.6073   88.4672   12.6782 C.3     1  UNL1        0.1148
      8 C          63.3516   87.0241   12.3591 C.3     1  UNL1        0.1123
      9 N          63.4779   85.9847   13.4332 N.pl3   1  UNL1       -0.3056
     10 C          63.2221   84.5414   13.1141 C.ar    1  UNL1        0.0524
     11 C          63.8239   83.9270   11.8851 C.ar    1  UNL1        0.0443
     12 C          63.5682   82.4839   11.5659 C.ar    1  UNL1        0.1436
     13 F          64.1701   81.8695   10.3370 F       1  UNL1       -0.2041
     14 C          62.7106   81.6551   12.4757 C.ar    1  UNL1        0.0593
     15 C          62.1087   82.2695   13.7046 C.ar    1  UNL1        0.1436
     16 F          61.2512   81.4407   14.6144 F       1  UNL1       -0.2041
     17 C          62.3645   83.7127   14.0238 C.ar    1  UNL1        0.0443
     18 C          64.1188   91.3536   13.3165 C.3     1  UNL1        0.0874
     19 C          65.2613   91.6044   12.3774 C.3     1  UNL1        0.0365
     20 C          65.7910   92.9959   12.1955 C.3     1  UNL1        0.1275
     21 N          66.4740   94.3286   12.2807 N.am    1  UNL1       -0.2839
     22 C          66.0521   95.1424   11.0933 C.2     1  UNL1        0.3068
     23 O          66.4960   96.5406   10.7800 O.2     1  UNL1       -0.2524
     24 N          65.1084   94.3126   10.2743 N.am    1  UNL1       -0.2384
     25 C          64.9470   92.9860   10.9555 C.2     1  UNL1        0.2451
     26 O          64.0918   91.8491   10.4801 O.2     1  UNL1       -0.2730
     27 H          67.0909   94.6183   12.9912 H       1  UNL1        0.1513
     28 H          64.6716   94.5900    9.4368 H       1  UNL1        0.1591
     29 C          66.5243   92.7148   13.4735 C.3     1  UNL1        0.0249
     30 C          66.8021   93.0422   14.9107 C.3     1  UNL1        0.0021
     31 C          67.5165   91.9007   14.2499 C.3     1  UNL1        0.0021
@<TRIPOS>BOND
     1     2     1    1
     2     2     3    1
     3     3     4    1
     4     4     5   am
     5     5     6    2
     6     5    18    1
     7    18    19    1
     8    20    19    1
     9    20    29    1
    10    29    30    1
    11    30    31    1
    12    20    21    1
    13    21    22   am
    14    22    23    2
    15    22    24   am
    16    24    25   am
    17    25    26    2
    18     4     7    1
    19     7     8    1
    20     8     9    1
    21     9    10    1
    22    10    11   ar
    23    11    12   ar
    24    12    13    1
    25    12    14   ar
    26    14    15   ar
    27    15    16    1
    28    15    17   ar
    29     9     2    1
    30    17    10   ar
    31    25    20    1
    32    31    29    1
    33    21    27    1
    34    24    28    1
@<TRIPOS>MOLECULE
*****
 31 34 0 0 0
SMALL
GASTEIGER

@<TRIPOS>ATOM
      1 C          62.1815   85.5298   11.8653 C.3     1  UNL1        0.0232
      2 C          62.5287   86.9780   11.6863 C.3     1  UNL1        0.0927
      3 C          63.1952   87.7326   12.7982 C.3     1  UNL1        0.1131
      4 N          63.5423   89.1808   12.6191 N.am    1  UNL1       -0.2761
      5 C          64.2089   89.9353   13.7311 C.2     1  UNL1        0.2258
      6 O          64.5284   89.2416   15.0221 O.2     1  UNL1       -0.2749
      7 C          63.2229   89.8746   11.3281 C.3     1  UNL1        0.1148
      8 C          62.5563   89.1200   10.2162 C.3     1  UNL1        0.1123
      9 N          62.2092   87.6718   10.3953 N.pl3   1  UNL1       -0.3056
     10 C          61.5426   86.9173    9.2833 C.ar    1  UNL1        0.0524
     11 C          62.3405   85.9722    8.4346 C.ar    1  UNL1        0.0443
     12 C          61.6740   85.2177    7.3227 C.ar    1  UNL1        0.1436
     13 F          62.4718   84.2727    6.4739 F       1  UNL1       -0.2041
     14 C          60.2095   85.4083    7.0594 C.ar    1  UNL1        0.0593
     15 C          59.4117   86.3533    7.9081 C.ar    1  UNL1        0.1436
     16 F          57.9474   86.5439    7.6449 F       1  UNL1       -0.2041
     17 C          60.0783   87.1079    9.0201 C.ar    1  UNL1        0.0443
     18 C          64.5560   91.3836   13.5520 C.3     1  UNL1        0.0874
     19 C          65.6898   91.7774   12.6524 C.3     1  UNL1        0.0365
     20 C          66.0927   93.2179   12.5402 C.3     1  UNL1        0.1275
     21 N          66.6368   94.6062   12.7031 N.am    1  UNL1       -0.2839
     22 C          66.2131   95.4129   11.5114 C.2     1  UNL1        0.3068
     23 O          66.5383   96.8560   11.2628 O.2     1  UNL1       -0.2524
     24 N          65.4071   94.5231   10.6122 N.am    1  UNL1       -0.2384
     25 C          65.3327   93.1666   11.2480 C.2     1  UNL1        0.2451
     26 O          64.6229   91.9689   10.6896 O.2     1  UNL1       -0.2730
     27 H          67.1771   94.9310   13.4592 H       1  UNL1        0.1513
     28 H          64.9987   94.7837    9.7551 H       1  UNL1        0.1591
     29 C          66.7684   92.9681   13.8559 C.3     1  UNL1        0.0249
     30 C          67.5816   92.0805   14.7507 C.3     1  UNL1        0.0021
     31 C          67.1257   93.4232   15.2398 C.3     1  UNL1        0.0021
@<TRIPOS>BOND
     1     2     1    1
     2     2     3    1
     3     3     4    1
     4     4     5   am
     5     5     6    2
     6     5    18    1
     7    18    19    1
     8    20    19    1
     9    20    29    1
    10    29    30    1
    11    30    31    1
    12    20    21    1
    13    21    22   am
    14    22    23    2
    15    22    24   am
    16    24    25   am
    17    25    26    2
    18     4     7    1
    19     7     8    1
    20     8     9    1
    21     9    10    1
    22    10    11   ar
    23    11    12   ar
    24    12    13    1
    25    12    14   ar
    26    14    15   ar
    27    15    16    1
    28    15    17   ar
    29     9     2    1
    30    17    10   ar
    31    25    20    1
    32    31    29    1
    33    21    27    1
    34    24    28    1
@<TRIPOS>MOLECULE
*****
 31 34 0 0 0
SMALL
GASTEIGER

@<TRIPOS>ATOM
      1 C          62.1319   85.5689   11.8368 C.3     1  UNL1        0.0232
      2 C          62.4904   87.0127   11.6439 C.3     1  UNL1        0.0927
      3 C          63.1510   87.7761   12.7533 C.3     1  UNL1        0.1131
      4 N          63.5095   89.2198   12.5603 N.am    1  UNL1       -0.2761
      5 C          64.1701   89.9833   13.6698 C.2     1  UNL1        0.2258
      6 O          64.4723   89.3030   14.9720 O.2     1  UNL1       -0.2749
      7 C          63.2073   89.9001   11.2581 C.3     1  UNL1        0.1148
      8 C          62.5467   89.1366   10.1488 C.3     1  UNL1        0.1123
      9 N          62.1882   87.6929   10.3417 N.pl3   1  UNL1       -0.3056
     10 C          61.5276   86.9295    9.2323 C.ar    1  UNL1        0.0524
     11 C          60.0614   87.1066    8.9694 C.ar    1  UNL1        0.0443
     12 C          59.4008   86.3432    7.8601 C.ar    1  UNL1        0.1436
     13 F          57.9346   86.5203    7.5972 F       1  UNL1       -0.2041
     14 C          60.2062   85.4026    7.0135 C.ar    1  UNL1        0.0593
     15 C          61.6724   85.2255    7.2763 C.ar    1  UNL1        0.1436
     16 F          62.4778   84.2850    6.4298 F       1  UNL1       -0.2041
     17 C          62.3330   85.9889    8.3858 C.ar    1  UNL1        0.0443
     18 C          64.5286   91.4270   13.4768 C.3     1  UNL1        0.0874
     19 C          65.7116   91.7998   12.6334 C.3     1  UNL1        0.0365
     20 C          66.1079   93.2396   12.4918 C.3     1  UNL1        0.1275
     21 N          66.6483   94.6325   12.6248 N.am    1  UNL1       -0.2839
     22 C          66.2099   95.4163   11.4233 C.2     1  UNL1        0.3068
     23 O          66.5272   96.8560   11.1460 O.2     1  UNL1       -0.2524
     24 N          65.3986   94.5079   10.5479 N.am    1  UNL1       -0.2384
     25 C          65.3355   93.1625   11.2083 C.2     1  UNL1        0.2451
     26 O          64.6249   91.9526   10.6781 O.2     1  UNL1       -0.2730
     27 H          67.1948   94.9725   13.3697 H       1  UNL1        0.1513
     28 H          64.9808   94.7517    9.6904 H       1  UNL1        0.1591
     29 C          66.7974   93.0156   13.8050 C.3     1  UNL1        0.0249
     30 C          67.7328   92.2141   14.6610 C.3     1  UNL1        0.0021
     31 C          67.0564   93.4291   15.2234 C.3     1  UNL1        0.0021
@<TRIPOS>BOND
     1     2     1    1
     2     2     3    1
     3     3     4    1
     4     4     5   am
     5     5     6    2
     6     5    18    1
     7    18    19    1
     8    20    19    1
     9    20    29    1
    10    29    30    1
    11    30    31    1
    12    20    21    1
    13    21    22   am
    14    22    23    2
    15    22    24   am
    16    24    25   am
    17    25    26    2
    18     4     7    1
    19     7     8    1
    20     8     9    1
    21     9    10    1
    22    10    11   ar
    23    11    12   ar
    24    12    13    1
    25    12    14   ar
    26    14    15   ar
    27    15    16    1
    28    15    17   ar
    29     9     2    1
    30    17    10   ar
    31    25    20    1
    32    31    29    1
    33    21    27    1
    34    24    28    1
@<TRIPOS>MOLECULE
*****
 31 34 0 0 0
SMALL
GASTEIGER

@<TRIPOS>ATOM
      1 C          61.3920   85.8404    9.9696 C.3     1  UNL1        0.0232
      2 C          62.1261   86.6747   10.9771 C.3     1  UNL1        0.0927
      3 C          62.1166   88.1703   10.8622 C.3     1  UNL1        0.1131
      4 N          62.8506   89.0046   11.8697 N.am    1  UNL1       -0.2761
      5 C          62.8411   90.5002   11.7547 C.2     1  UNL1        0.2258
      6 O          62.0975   91.1614   10.6324 O.2     1  UNL1       -0.2749
      7 C          63.5942   88.3434   12.9921 C.3     1  UNL1        0.1148
      8 C          63.6038   86.8478   13.1070 C.3     1  UNL1        0.1123
      9 N          62.8697   86.0135   12.0995 N.pl3   1  UNL1       -0.3056
     10 C          62.8792   84.5179   12.2144 C.ar    1  UNL1        0.0524
     11 C          63.3663   83.6808   11.0690 C.ar    1  UNL1        0.0443
     12 C          63.3759   82.1853   11.1839 C.ar    1  UNL1        0.1436
     13 F          63.8629   81.3481   10.0384 F       1  UNL1       -0.2041
     14 C          62.8984   81.5268   12.4442 C.ar    1  UNL1        0.0593
     15 C          62.4113   82.3639   13.5897 C.ar    1  UNL1        0.1436
     16 F          61.9338   81.7055   14.8500 F       1  UNL1       -0.2041
     17 C          62.4018   83.8595   13.4747 C.ar    1  UNL1        0.0443
     18 C          63.5751   91.3345   12.7623 C.3     1  UNL1        0.0874
     19 C          64.9852   90.9880   13.1384 C.3     1  UNL1        0.0365
     20 C          65.6881   91.7661   14.2110 C.3     1  UNL1        0.1275
     21 N          66.1884   92.4004   15.4749 N.am    1  UNL1       -0.2839
     22 C          67.3198   93.3178   15.1167 C.2     1  UNL1        0.3068
     23 O          68.1130   94.1555   16.0755 O.2     1  UNL1       -0.2524
     24 N          67.5188   93.2505   13.6315 N.am    1  UNL1       -0.2384
     25 C          66.5104   92.2915   13.0717 C.2     1  UNL1        0.2451
     26 O          66.3520   91.9227   11.6265 O.2     1  UNL1       -0.2730
     27 H          65.8360   92.2424   16.3805 H       1  UNL1        0.1513
     28 H          68.1929   93.7483   13.1148 H       1  UNL1        0.1591
     29 C          64.7189   91.0781   15.1261 C.3     1  UNL1        0.0249
     30 C          63.8097   91.1128   16.3186 C.3     1  UNL1        0.0021
     31 C          63.9494   89.8517   15.5184 C.3     1  UNL1        0.0021
@<TRIPOS>BOND
     1     2     1    1
     2     2     3    1
     3     3     4    1
     4     4     5   am
     5     5     6    2
     6     5    18    1
     7    18    19    1
     8    20    19    1
     9    20    29    1
    10    29    30    1
    11    30    31    1
    12    20    21    1
    13    21    22   am
    14    22    23    2
    15    22    24   am
    16    24    25   am
    17    25    26    2
    18     4     7    1
    19     7     8    1
    20     8     9    1
    21     9    10    1
    22    10    11   ar
    23    11    12   ar
    24    12    13    1
    25    12    14   ar
    26    14    15   ar
    27    15    16    1
    28    15    17   ar
    29     9     2    1
    30    17    10   ar
    31    25    20    1
    32    31    29    1
    33    21    27    1
    34    24    28    1
@<TRIPOS>MOLECULE
*****
 31 34 0 0 0
SMALL
GASTEIGER

@<TRIPOS>ATOM
      1 C          61.7344   85.5227   10.4184 C.3     1  UNL1        0.0232
      2 C          62.5209   86.1181   11.5485 C.3     1  UNL1        0.0927
      3 C          62.7121   87.6037   11.6282 C.3     1  UNL1        0.1131
      4 N          63.4985   88.1991   12.7583 N.am    1  UNL1       -0.2761
      5 C          63.6897   89.6848   12.8380 C.2     1  UNL1        0.2258
      6 O          63.0944   90.5749   11.7876 O.2     1  UNL1       -0.2749
      7 C          64.0937   87.3089   13.8086 C.3     1  UNL1        0.1148
      8 C          63.9025   85.8233   13.7288 C.3     1  UNL1        0.1123
      9 N          63.1161   85.2279   12.5988 N.pl3   1  UNL1       -0.3056
     10 C          62.9249   83.7422   12.5191 C.ar    1  UNL1        0.0524
     11 C          62.3382   82.9981   13.6819 C.ar    1  UNL1        0.0443
     12 C          62.1470   81.5125   13.6022 C.ar    1  UNL1        0.1436
     13 F          61.5603   80.7684   14.7650 F       1  UNL1       -0.2041
     14 C          62.5425   80.7709   12.3597 C.ar    1  UNL1        0.0593
     15 C          63.1293   81.5150   11.1970 C.ar    1  UNL1        0.1436
     16 F          63.5248   80.7735    9.9545 F       1  UNL1       -0.2041
     17 C          63.3204   83.0007   11.2767 C.ar    1  UNL1        0.0443
     18 C          64.4761   90.2802   13.9680 C.3     1  UNL1        0.0874
     19 C          64.9306   91.7078   13.8951 C.3     1  UNL1        0.0365
     20 C          66.0030   92.2016   14.8203 C.3     1  UNL1        0.1275
     21 N          66.8600   92.6466   15.9681 N.am    1  UNL1       -0.2839
     22 C          68.1957   93.0525   15.4191 C.2     1  UNL1        0.3068
     23 O          69.3588   93.5629   16.2172 O.2     1  UNL1       -0.2524
     24 N          68.1641   92.8585   13.9321 N.am    1  UNL1       -0.2384
     25 C          66.8089   92.3326   13.5619 C.2     1  UNL1        0.2451
     26 O          66.3417   91.9967   12.1767 O.2     1  UNL1       -0.2730
     27 H          66.5929   92.6683   16.9154 H       1  UNL1        0.1513
     28 H          68.9030   93.0438   13.3085 H       1  UNL1        0.1591
     29 C          64.9729   91.9674   15.8852 C.3     1  UNL1        0.0249
     30 C          63.8224   91.1720   16.4271 C.3     1  UNL1        0.0021
     31 C          64.3391   92.3571   17.1877 C.3     1  UNL1        0.0021
@<TRIPOS>BOND
     1     2     1    1
     2     2     3    1
     3     3     4    1
     4     4     5   am
     5     5     6    2
     6     5    18    1
     7    18    19    1
     8    20    19    1
     9    20    29    1
    10    29    30    1
    11    30    31    1
    12    20    21    1
    13    21    22   am
    14    22    23    2
    15    22    24   am
    16    24    25   am
    17    25    26    2
    18     4     7    1
    19     7     8    1
    20     8     9    1
    21     9    10    1
    22    10    11   ar
    23    11    12   ar
    24    12    13    1
    25    12    14   ar
    26    14    15   ar
    27    15    16    1
    28    15    17   ar
    29     9     2    1
    30    17    10   ar
    31    25    20    1
    32    31    29    1
    33    21    27    1
    34    24    28    1
@<TRIPOS>MOLECULE
*****
 31 34 0 0 0
SMALL
GASTEIGER

@<TRIPOS>ATOM
      1 C          64.5709   84.2438   15.1853 C.3     1  UNL1        0.0232
      2 C          64.0619   85.2940   14.2431 C.3     1  UNL1        0.0927
      3 C          64.3539   86.7418   14.5051 C.3     1  UNL1        0.1131
      4 N          63.8449   87.7920   13.5629 N.am    1  UNL1       -0.2761
      5 C          64.1369   89.2399   13.8249 C.2     1  UNL1        0.2258
      6 O          64.9380   89.6373   15.0292 O.2     1  UNL1       -0.2749
      7 C          63.0438   87.3946   12.3586 C.3     1  UNL1        0.1148
      8 C          62.7517   85.9468   12.0966 C.3     1  UNL1        0.1123
      9 N          63.2608   84.8966   13.0389 N.pl3   1  UNL1       -0.3056
     10 C          62.9687   83.4487   12.7768 C.ar    1  UNL1        0.0524
     11 C          62.2344   82.6346   13.8005 C.ar    1  UNL1        0.0443
     12 C          61.9423   81.1868   13.5385 C.ar    1  UNL1        0.1436
     13 F          61.2080   80.3726   14.5621 F       1  UNL1       -0.2041
     14 C          62.3846   80.5532   12.2527 C.ar    1  UNL1        0.0593
     15 C          63.1189   81.3674   11.2291 C.ar    1  UNL1        0.1436
     16 F          63.5611   80.7338    9.9434 F       1  UNL1       -0.2041
     17 C          63.4109   82.8152   11.4911 C.ar    1  UNL1        0.0443
     18 C          63.6279   90.2901   12.8827 C.3     1  UNL1        0.0874
     19 C          64.1913   91.6793   12.9328 C.3     1  UNL1        0.0365
     20 C          64.8400   92.2699   11.7161 C.3     1  UNL1        0.1275
     21 N          65.2510   92.7241   10.3468 N.am    1  UNL1       -0.2839
     22 C          66.5063   93.5336   10.4844 C.2     1  UNL1        0.3068
     23 O          67.2638   94.1830    9.3644 O.2     1  UNL1       -0.2524
     24 N          66.8712   93.5797   11.9386 N.am    1  UNL1       -0.2384
     25 C          65.8414   92.7987   12.6998 C.2     1  UNL1        0.2451
     26 O          65.8171   92.5841   14.1842 O.2     1  UNL1       -0.2730
     27 H          64.7796   92.5258    9.5056 H       1  UNL1        0.1513
     28 H          67.6498   94.0414   12.3255 H       1  UNL1        0.1591
     29 C          63.7031   91.6177   10.9867 C.3     1  UNL1        0.0249
     30 C          63.0637   91.1816    9.7018 C.3     1  UNL1        0.0021
     31 C          62.3732   90.9242   11.0083 C.3     1  UNL1        0.0021
@<TRIPOS>BOND
     1     2     1    1
     2     2     3    1
     3     3     4    1
     4     4     5   am
     5     5     6    2
     6     5    18    1
     7    18    19    1
     8    20    19    1
     9    20    29    1
    10    29    30    1
    11    30    31    1
    12    20    21    1
    13    21    22   am
    14    22    23    2
    15    22    24   am
    16    24    25   am
    17    25    26    2
    18     4     7    1
    19     7     8    1
    20     8     9    1
    21     9    10    1
    22    10    11   ar
    23    11    12   ar
    24    12    13    1
    25    12    14   ar
    26    14    15   ar
    27    15    16    1
    28    15    17   ar
    29     9     2    1
    30    17    10   ar
    31    25    20    1
    32    31    29    1
    33    21    27    1
    34    24    28    1
@<TRIPOS>MOLECULE
*****
 31 34 0 0 0
SMALL
GASTEIGER

@<TRIPOS>ATOM
      1 C          64.2103   84.5214   15.4903 C.3     1  UNL1        0.0232
      2 C          63.9275   85.5647   14.4503 C.3     1  UNL1        0.0927
      3 C          64.2606   87.0021   14.7199 C.3     1  UNL1        0.1131
      4 N          63.9778   88.0454   13.6799 N.am    1  UNL1       -0.2761
      5 C          64.3109   89.4829   13.9496 C.2     1  UNL1        0.2258
      6 O          64.9268   89.8771   15.2593 O.2     1  UNL1       -0.2749
      7 C          63.3619   87.6512   12.3702 C.3     1  UNL1        0.1148
      8 C          63.0288   86.2137   12.1006 C.3     1  UNL1        0.1123
      9 N          63.3116   85.1705   13.1406 N.pl3   1  UNL1       -0.3056
     10 C          62.9785   83.7330   12.8709 C.ar    1  UNL1        0.0524
     11 C          62.1996   82.9416   13.8794 C.ar    1  UNL1        0.0443
     12 C          61.8664   81.5042   13.6098 C.ar    1  UNL1        0.1436
     13 F          61.0875   80.7129   14.6183 F       1  UNL1       -0.2041
     14 C          62.3123   80.8580   12.3316 C.ar    1  UNL1        0.0593
     15 C          63.0912   81.6493   11.3230 C.ar    1  UNL1        0.1436
     16 F          63.5370   81.0032   10.0449 F       1  UNL1       -0.2041
     17 C          63.4243   83.0868   11.5927 C.ar    1  UNL1        0.0443
     18 C          64.0281   90.5261   12.9096 C.3     1  UNL1        0.0874
     19 C          64.5025   91.9347   13.1118 C.3     1  UNL1        0.0365
     20 C          65.7285   92.4229   12.3985 C.3     1  UNL1        0.1275
     21 N          67.0815   92.9099   11.9719 N.am    1  UNL1       -0.2839
     22 C          67.0533   93.1144   10.4862 C.2     1  UNL1        0.3068
     23 O          68.1952   93.5952    9.6405 O.2     1  UNL1       -0.2524
     24 N          65.6828   92.7538    9.9946 N.am    1  UNL1       -0.2384
     25 C          64.8640   92.3264   11.1764 C.2     1  UNL1        0.2451
     26 O          63.4322   91.8808   11.1423 O.2     1  UNL1       -0.2730
     27 H          67.8527   93.0676   12.5633 H       1  UNL1        0.1513
     28 H          65.3748   92.7911    9.0602 H       1  UNL1        0.1591
     29 C          66.3366   92.4172   13.7697 C.3     1  UNL1        0.0249
     30 C          67.4115   91.9629   14.7122 C.3     1  UNL1        0.0021
     31 C          66.3151   92.8618   15.2021 C.3     1  UNL1        0.0021
@<TRIPOS>BOND
     1     2     1    1
     2     2     3    1
     3     3     4    1
     4     4     5   am
     5     5     6    2
     6     5    18    1
     7    18    19    1
     8    20    19    1
     9    20    29    1
    10    29    30    1
    11    30    31    1
    12    20    21    1
    13    21    22   am
    14    22    23    2
    15    22    24   am
    16    24    25   am
    17    25    26    2
    18     4     7    1
    19     7     8    1
    20     8     9    1
    21     9    10    1
    22    10    11   ar
    23    11    12   ar
    24    12    13    1
    25    12    14   ar
    26    14    15   ar
    27    15    16    1
    28    15    17   ar
    29     9     2    1
    30    17    10   ar
    31    25    20    1
    32    31    29    1
    33    21    27    1
    34    24    28    1
@<TRIPOS>MOLECULE
*****
 31 34 0 0 0
SMALL
GASTEIGER

@<TRIPOS>ATOM
      1 C          61.2513   85.7657   10.2894 C.3     1  UNL1        0.0232
      2 C          62.1318   86.5141   11.2458 C.3     1  UNL1        0.0927
      3 C          62.2169   88.0099   11.1734 C.3     1  UNL1        0.1131
      4 N          63.0973   88.7582   12.1299 N.am    1  UNL1       -0.2761
      5 C          63.1823   90.2541   12.0574 C.2     1  UNL1        0.2258
      6 O          62.3869   91.0016   11.0286 O.2     1  UNL1       -0.2749
      7 C          63.8928   88.0108   13.1587 C.3     1  UNL1        0.1148
      8 C          63.8078   86.5150   13.2311 C.3     1  UNL1        0.1123
      9 N          62.9273   85.7666   12.2747 N.pl3   1  UNL1       -0.3056
     10 C          62.8423   84.2707   12.3471 C.ar    1  UNL1        0.0524
     11 C          62.3317   83.6080   13.5921 C.ar    1  UNL1        0.0443
     12 C          62.2467   82.1122   13.6646 C.ar    1  UNL1        0.1436
     13 F          61.7360   81.4494   14.9096 F       1  UNL1       -0.2041
     14 C          62.6723   81.2790   12.4921 C.ar    1  UNL1        0.0593
     15 C          63.1829   81.9418   11.2470 C.ar    1  UNL1        0.1436
     16 F          63.6085   81.1087   10.0745 F       1  UNL1       -0.2041
     17 C          63.2679   83.4377   11.1746 C.ar    1  UNL1        0.0443
     18 C          64.0628   91.0025   13.0138 C.3     1  UNL1        0.0874
     19 C          64.6827   92.3044   12.6007 C.3     1  UNL1        0.0365
     20 C          66.1179   92.3475   12.1667 C.3     1  UNL1        0.1275
     21 N          67.6119   92.3292   12.0345 N.am    1  UNL1       -0.2839
     22 C          67.9537   92.6021   10.5997 C.2     1  UNL1        0.3068
     23 O          69.3356   92.6753   10.0210 O.2     1  UNL1       -0.2524
     24 N          66.6708   92.7890    9.8451 N.am    1  UNL1       -0.2384
     25 C          65.5363   92.6316   10.8135 C.2     1  UNL1        0.2451
     26 O          64.0764   92.7395   10.4863 O.2     1  UNL1       -0.2730
     27 H          68.2553   92.1667   12.7618 H       1  UNL1        0.1513
     28 H          66.5881   92.9813    8.8831 H       1  UNL1        0.1591
     29 C          66.3995   92.0543   13.6106 C.3     1  UNL1        0.0249
     30 C          66.1427   92.3205   15.0642 C.3     1  UNL1        0.0021
     31 C          67.1440   91.2802   14.6577 C.3     1  UNL1        0.0021
@<TRIPOS>BOND
     1     2     1    1
     2     2     3    1
     3     3     4    1
     4     4     5   am
     5     5     6    2
     6     5    18    1
     7    18    19    1
     8    20    19    1
     9    20    29    1
    10    29    30    1
    11    30    31    1
    12    20    21    1
    13    21    22   am
    14    22    23    2
    15    22    24   am
    16    24    25   am
    17    25    26    2
    18     4     7    1
    19     7     8    1
    20     8     9    1
    21     9    10    1
    22    10    11   ar
    23    11    12   ar
    24    12    13    1
    25    12    14   ar
    26    14    15   ar
    27    15    16    1
    28    15    17   ar
    29     9     2    1
    30    17    10   ar
    31    25    20    1
    32    31    29    1
    33    21    27    1
    34    24    28    1
