@<TRIPOS>MOLECULE
*****
 61 68 0 0 0
SMALL
GASTEIGER

@<TRIPOS>ATOM
      1 N          65.4660   89.8880   13.8005 N.3     1  UNL1       -0.1862
      2 C          65.8703   88.7650   14.7090 C.3     1  UNL1        0.1775
      3 C          65.0976   87.4793   14.7020 C.2     1  UNL1        0.2452
      4 O          65.5020   86.3563   15.6105 O.2     1  UNL1       -0.2732
      5 N          63.9207   87.3166   13.7864 N.am    1  UNL1       -0.2541
      6 C          63.1480   86.0310   13.7794 C.3     1  UNL1        0.1577
      7 C          61.9711   85.8683   12.8638 C.2     1  UNL1        0.2445
      8 O          61.1984   84.5826   12.8568 O.2     1  UNL1       -0.2731
      9 N          61.5667   86.9913   11.9553 N.am    1  UNL1       -0.2705
     10 C          62.3394   88.2770   11.9623 C.3     1  UNL1        0.1359
     11 C          63.5164   88.4396   12.8779 C.3     1  UNL1        0.1908
     12 N          64.2891   89.7253   12.8850 N.am    1  UNL1       -0.1863
     13 C          63.8847   90.8483   11.9764 C.2     1  UNL1        0.3191
     14 O          62.7078   90.6856   11.0609 O.2     1  UNL1       -0.2512
     15 N          64.6574   92.1340   11.9835 N.am    1  UNL1       -0.2836
     16 H          65.4299   92.2407   12.5844 H       1  UNL1        0.1513
     17 C          66.2387   91.1736   13.8076 C.3     1  UNL1        0.1188
     18 C          66.6529   92.6621   15.8963 C.2     1  UNL1       -0.0034
     19 C          67.0764   91.5387   14.9971 C.2     1  UNL1       -0.0071
     20 C          63.5523   84.9080   14.6878 C.3     1  UNL1        0.0556
     21 C          63.3055   83.4862   14.2785 C.ar    1  UNL1       -0.0198
     22 C          64.2115   82.8244   13.2829 C.ar    1  UNL1       -0.0011
     23 C          63.9647   81.4026   12.8735 C.ar    1  UNL1        0.0363
     24 C          62.8120   80.6426   13.4597 C.ar    1  UNL1        0.1337
     25 O          62.5653   79.2208   13.0503 O.3     1  UNL1       -0.5055
     26 C          61.9060   81.3044   14.4554 C.ar    1  UNL1        0.0363
     27 C          62.1528   82.7262   14.8647 C.ar    1  UNL1       -0.0011
     28 H          63.1312   78.8074   12.4284 H       1  UNL1        0.2922
     29 C          60.3898   86.8286   11.0397 C.3     1  UNL1        0.1217
     30 C          60.5446   87.0747    9.5681 C.ar    1  UNL1        0.0135
     31 C          61.0336   85.9761    8.6714 C.ar    1  UNL1       -0.0012
     32 C          61.1884   86.2220    7.1999 C.ar    1  UNL1       -0.0002
     33 C          60.8544   87.5666    6.6250 C.ar    1  UNL1        0.0015
     34 C          60.3654   88.6652    7.5217 C.ar    1  UNL1        0.0170
     35 C          59.9614   90.0827    7.2437 C.ar    1  UNL1        0.0201
     36 C          59.5568   90.7128    8.5434 C.ar    1  UNL1        0.0760
     37 N          59.7108   89.6847    9.6246 N.ar    1  UNL1       -0.3242
     38 C          59.4167   89.8867   11.0816 C.3     1  UNL1        0.1305
     39 C          60.2106   88.4192    8.9932 C.ar    1  UNL1        0.0575
     40 C          59.9619   90.7526    5.9014 C.ar    1  UNL1        0.0207
     41 C          61.2250   90.8151    5.0949 C.ar    1  UNL1        0.0033
     42 C          61.2254   91.4849    3.7528 C.ar    1  UNL1        0.0238
     43 C          59.9627   92.0922    3.2172 C.ar    1  UNL1        0.1347
     44 N          58.6996   92.0297    4.0238 N.ar    1  UNL1       -0.2393
     45 C          58.6992   91.3598    5.3659 C.ar    1  UNL1        0.0990
     46 C          59.9632   92.7620    1.8751 C.2     1  UNL1        0.2668
     47 O          58.6957   92.8435    1.0771 O.2     1  UNL1       -0.2683
     48 N          61.2312   93.3504    1.3308 N.am    1  UNL1       -0.2720
     49 C          62.4987   93.2689    2.1288 C.3     1  UNL1        0.1111
     50 C          63.7667   93.8572    1.5847 C.3     1  UNL1        0.0939
     51 N          63.7671   94.5270    0.2426 N.3     1  UNL1       -0.2686
     52 C          65.0350   95.1154   -0.3016 C.3     1  UNL1        0.0897
     53 C          62.4996   94.6085   -0.5554 C.3     1  UNL1        0.0939
     54 C          61.2316   94.0202   -0.0113 C.3     1  UNL1        0.1111
     55 C          64.2531   93.2570   11.0750 C.3     1  UNL1        0.1177
     56 C          65.3009   94.1235   10.4415 C.ar    1  UNL1       -0.0025
     57 C          66.5182   93.4998    9.8260 C.ar    1  UNL1       -0.0026
     58 C          67.5660   94.3663    9.1925 C.ar    1  UNL1       -0.0003
     59 C          67.3964   95.8565    9.1746 C.ar    1  UNL1       -0.0000
     60 C          66.1790   96.4803    9.7901 C.ar    1  UNL1       -0.0003
     61 C          65.1312   95.6138   10.4236 C.ar    1  UNL1       -0.0026
@<TRIPOS>BOND
     1    18    19    2
     2    19    17    1
     3    17     1    1
     4     1     2    1
     5     2     3    1
     6     3     4    2
     7     3     5   am
     8     5     6    1
     9     6    20    1
    10    20    21    1
    11    21    22   ar
    12    22    23   ar
    13    23    24   ar
    14    24    25    1
    15    24    26   ar
    16    26    27   ar
    17     6     7    1
    18     7     8    2
    19     7     9   am
    20     9    29    1
    21    29    30    1
    22    30    31   ar
    23    31    32   ar
    24    32    33   ar
    25    33    34   ar
    26    34    35   ar
    27    35    40    1
    28    40    41   ar
    29    41    42   ar
    30    42    43   ar
    31    43    46    1
    32    46    47    2
    33    46    48   am
    34    48    49    1
    35    49    50    1
    36    50    51    1
    37    51    52    1
    38    51    53    1
    39    53    54    1
    40    43    44   ar
    41    44    45   ar
    42    35    36   ar
    43    36    37   ar
    44    37    38    1
    45    37    39   ar
    46     9    10    1
    47    11    10    1
    48    11    12    1
    49    12    13   am
    50    13    14    2
    51    13    15   am
    52    15    55    1
    53    55    56    1
    54    56    57   ar
    55    57    58   ar
    56    58    59   ar
    57    59    60   ar
    58    60    61   ar
    59    12     1    1
    60    61    56   ar
    61    11     5    1
    62    27    21   ar
    63    39    30   ar
    64    39    34   ar
    65    45    40   ar
    66    54    48    1
    67    25    28    1
    68    15    16    1
@<TRIPOS>MOLECULE
*****
 61 68 0 0 0
SMALL
GASTEIGER

@<TRIPOS>ATOM
      1 N          64.5370   83.2240   13.3421 N.3     1  UNL1       -0.1862
      2 C          65.1258   84.0737   14.4289 C.3     1  UNL1        0.1775
      3 C          64.7029   85.5056   14.5736 C.2     1  UNL1        0.2452
      4 O          65.2918   86.3553   15.6605 O.2     1  UNL1       -0.2732
      5 N          63.6913   86.0877   13.6315 N.am    1  UNL1       -0.2541
      6 C          63.2684   87.5196   13.7762 C.3     1  UNL1        0.1577
      7 C          62.2567   88.1017   12.8342 C.2     1  UNL1        0.2445
      8 O          61.8339   89.5336   12.9789 O.2     1  UNL1       -0.2731
      9 N          61.6678   87.2520   11.7473 N.am    1  UNL1       -0.2705
     10 C          62.0907   85.8201   11.6026 C.3     1  UNL1        0.1359
     11 C          63.1024   85.2380   12.5447 C.3     1  UNL1        0.1908
     12 N          63.5253   83.8061   12.4000 N.am    1  UNL1       -0.1863
     13 C          62.9364   82.9564   11.3131 C.2     1  UNL1        0.3191
     14 O          61.9247   83.5385   10.3711 O.2     1  UNL1       -0.2512
     15 N          63.3593   81.5245   11.1684 N.am    1  UNL1       -0.2836
     16 H          64.0233   81.1424   11.7868 H       1  UNL1        0.1513
     17 C          64.9598   81.7921   13.1974 C.3     1  UNL1        0.1188
     18 C          62.7782   80.7083   14.1006 C.2     1  UNL1       -0.0034
     19 C          64.2745   80.7233   13.9960 C.2     1  UNL1       -0.0071
     20 C          63.8572   88.3693   14.8630 C.3     1  UNL1        0.0556
     21 C          64.4045   89.7279   14.5394 C.ar    1  UNL1       -0.0198
     22 C          64.5818   90.1439   13.1093 C.ar    1  UNL1       -0.0011
     23 C          65.1290   91.5025   12.7856 C.ar    1  UNL1        0.0363
     24 C          65.4990   92.4451   13.8922 C.ar    1  UNL1        0.1337
     25 O          66.0462   93.8037   13.5686 O.3     1  UNL1       -0.5055
     26 C          65.3217   92.0292   15.3225 C.ar    1  UNL1        0.0363
     27 C          64.7744   90.6706   15.6461 C.ar    1  UNL1       -0.0011
     28 H          66.1570   94.0636   12.6752 H       1  UNL1        0.2922
     29 C          60.6561   87.8341   10.8052 C.3     1  UNL1        0.1217
     30 C          61.0450   88.9529    9.8847 C.ar    1  UNL1        0.0135
     31 C          62.0792   89.9514   10.3130 C.ar    1  UNL1       -0.0012
     32 C          62.4681   91.0701    9.3927 C.ar    1  UNL1       -0.0002
     33 C          61.8228   91.1904    8.0440 C.ar    1  UNL1        0.0015
     34 C          60.7886   90.1919    7.6156 C.ar    1  UNL1        0.0170
     35 C          59.9865   90.0554    6.3555 C.ar    1  UNL1        0.0201
     36 C          59.1019   88.8523    6.4970 C.ar    1  UNL1        0.0760
     37 N          59.3573   88.2452    7.8447 N.ar    1  UNL1       -0.3242
     38 C          58.6878   87.0246    8.4030 C.3     1  UNL1        0.1305
     39 C          60.3997   89.0731    8.5360 C.ar    1  UNL1        0.0575
     40 C          60.0567   90.9627    5.1630 C.ar    1  UNL1        0.0207
     41 C          61.3320   91.0771    4.3817 C.ar    1  UNL1        0.0033
     42 C          61.4021   91.9845    3.1893 C.ar    1  UNL1        0.0238
     43 C          60.1970   92.7774    2.7782 C.ar    1  UNL1        0.1347
     44 N          58.9217   92.6630    3.5596 N.ar    1  UNL1       -0.2393
     45 C          58.8516   91.7557    4.7520 C.ar    1  UNL1        0.0990
     46 C          60.2673   93.6847    1.5858 C.2     1  UNL1        0.2668
     47 O          59.0260   93.9882    0.8002 O.2     1  UNL1       -0.2683
     48 N          61.5787   94.2886    1.1790 N.am    1  UNL1       -0.2720
     49 C          62.8200   93.9851    1.9646 C.3     1  UNL1        0.1111
     50 C          64.1314   94.5889    1.5578 C.3     1  UNL1        0.0939
     51 N          64.2015   95.4962    0.3654 N.3     1  UNL1       -0.2686
     52 C          65.5130   96.1000   -0.0414 C.3     1  UNL1        0.0897
     53 C          62.9603   95.7997   -0.4202 C.3     1  UNL1        0.0939
     54 C          61.6488   95.1959   -0.0134 C.3     1  UNL1        0.1111
     55 C          62.7704   80.6747   10.0816 C.3     1  UNL1        0.1177
     56 C          63.0975   79.2125   10.0126 C.ar    1  UNL1       -0.0025
     57 C          64.0549   78.7062    8.9748 C.ar    1  UNL1       -0.0026
     58 C          64.3819   77.2439    8.9058 C.ar    1  UNL1       -0.0003
     59 C          63.7515   76.2879    9.8746 C.ar    1  UNL1       -0.0000
     60 C          62.7941   76.7941   10.9125 C.ar    1  UNL1       -0.0003
     61 C          62.4670   78.2564   10.9815 C.ar    1  UNL1       -0.0026
@<TRIPOS>BOND
     1    18    19    2
     2    19    17    1
     3    17     1    1
     4     1     2    1
     5     2     3    1
     6     3     4    2
     7     3     5   am
     8     5     6    1
     9     6    20    1
    10    20    21    1
    11    21    22   ar
    12    22    23   ar
    13    23    24   ar
    14    24    25    1
    15    24    26   ar
    16    26    27   ar
    17     6     7    1
    18     7     8    2
    19     7     9   am
    20     9    29    1
    21    29    30    1
    22    30    31   ar
    23    31    32   ar
    24    32    33   ar
    25    33    34   ar
    26    34    35   ar
    27    35    40    1
    28    40    41   ar
    29    41    42   ar
    30    42    43   ar
    31    43    46    1
    32    46    47    2
    33    46    48   am
    34    48    49    1
    35    49    50    1
    36    50    51    1
    37    51    52    1
    38    51    53    1
    39    53    54    1
    40    43    44   ar
    41    44    45   ar
    42    35    36   ar
    43    36    37   ar
    44    37    38    1
    45    37    39   ar
    46     9    10    1
    47    11    10    1
    48    11    12    1
    49    12    13   am
    50    13    14    2
    51    13    15   am
    52    15    55    1
    53    55    56    1
    54    56    57   ar
    55    57    58   ar
    56    58    59   ar
    57    59    60   ar
    58    60    61   ar
    59    12     1    1
    60    61    56   ar
    61    11     5    1
    62    27    21   ar
    63    39    30   ar
    64    39    34   ar
    65    45    40   ar
    66    54    48    1
    67    25    28    1
    68    15    16    1
@<TRIPOS>MOLECULE
*****
 61 68 0 0 0
SMALL
GASTEIGER

@<TRIPOS>ATOM
      1 N          64.3716   83.0917   13.3416 N.3     1  UNL1       -0.1862
      2 C          64.9177   83.9503   14.4436 C.3     1  UNL1        0.1775
      3 C          64.4972   85.3859   14.5543 C.2     1  UNL1        0.2452
      4 O          65.0434   86.2446   15.6564 O.2     1  UNL1       -0.2732
      5 N          63.5306   85.9629   13.5630 N.am    1  UNL1       -0.2541
      6 C          63.1101   87.3985   13.6736 C.3     1  UNL1        0.1577
      7 C          62.1435   87.9754   12.6823 C.2     1  UNL1        0.2445
      8 O          61.7230   89.4110   12.7930 O.2     1  UNL1       -0.2731
      9 N          61.5974   87.1167   11.5802 N.am    1  UNL1       -0.2705
     10 C          62.0179   85.6811   11.4696 C.3     1  UNL1        0.1359
     11 C          62.9845   85.1042   12.4610 C.3     1  UNL1        0.1908
     12 N          63.4050   83.6686   12.3503 N.am    1  UNL1       -0.1863
     13 C          62.8589   82.8099   11.2482 C.2     1  UNL1        0.3191
     14 O          61.8922   83.3869   10.2569 O.2     1  UNL1       -0.2512
     15 N          63.2794   81.3744   11.1376 N.am    1  UNL1       -0.2836
     16 H          63.9138   80.9957   11.7882 H       1  UNL1        0.1513
     17 C          64.7921   81.6561   13.2309 C.3     1  UNL1        0.1188
     18 C          62.5518   80.7485   14.1834 C.2     1  UNL1       -0.0034
     19 C          64.0269   80.5920   13.9604 C.2     1  UNL1       -0.0071
     20 C          63.6562   88.2571   14.7756 C.3     1  UNL1        0.0556
     21 C          64.2575   89.5939   14.4570 C.ar    1  UNL1       -0.0198
     22 C          64.3809   90.0398   13.0301 C.ar    1  UNL1       -0.0011
     23 C          64.9822   91.3765   12.7115 C.ar    1  UNL1        0.0363
     24 C          65.4600   92.2674   13.8196 C.ar    1  UNL1        0.1337
     25 O          66.0613   93.6041   13.5010 O.3     1  UNL1       -0.5055
     26 C          65.3366   91.8215   15.2465 C.ar    1  UNL1        0.0363
     27 C          64.7353   90.4847   15.5652 C.ar    1  UNL1       -0.0011
     28 H          66.1384   93.8827   12.6096 H       1  UNL1        0.2922
     29 C          60.6307   87.6937   10.5889 C.3     1  UNL1        0.1217
     30 C          61.0360   88.8608    9.7382 C.ar    1  UNL1        0.0135
     31 C          62.0551   89.8388   10.2430 C.ar    1  UNL1       -0.0012
     32 C          62.4603   91.0059    9.3924 C.ar    1  UNL1       -0.0002
     33 C          61.8464   91.1950    8.0370 C.ar    1  UNL1        0.0015
     34 C          60.8272   90.2171    7.5322 C.ar    1  UNL1        0.0170
     35 C          60.0557   90.1446    6.2479 C.ar    1  UNL1        0.0201
     36 C          59.1736   88.9326    6.3048 C.ar    1  UNL1        0.0760
     37 N          59.4000   88.2562    7.6242 N.ar    1  UNL1       -0.3242
     38 C          58.7233   87.0054    8.1013 C.3     1  UNL1        0.1305
     39 C          60.4220   89.0499    8.3828 C.ar    1  UNL1        0.0575
     40 C          60.1497   91.1139    5.1069 C.ar    1  UNL1        0.0207
     41 C          61.4375   91.2611    4.3520 C.ar    1  UNL1        0.0033
     42 C          61.5315   92.2303    3.2111 C.ar    1  UNL1        0.0238
     43 C          60.3377   93.0524    2.8251 C.ar    1  UNL1        0.1347
     44 N          59.0499   92.9052    3.5800 N.ar    1  UNL1       -0.2393
     45 C          58.9559   91.9360    4.7209 C.ar    1  UNL1        0.0990
     46 C          60.4317   94.0217    1.6842 C.2     1  UNL1        0.2668
     47 O          61.1314   95.3352    1.8717 O.2     1  UNL1       -0.2683
     48 N          59.8261   93.6775    0.3557 N.am    1  UNL1       -0.2720
     49 C          59.1265   92.3640    0.1682 C.3     1  UNL1        0.1111
     50 C          58.5209   92.0197   -1.1603 C.3     1  UNL1        0.0939
     51 N          58.6150   92.9890   -2.3011 N.3     1  UNL1       -0.2686
     52 C          58.0094   92.6448   -3.6296 C.3     1  UNL1        0.0897
     53 C          59.3146   94.3025   -2.1136 C.3     1  UNL1        0.0939
     54 C          59.9202   94.6468   -0.7851 C.3     1  UNL1        0.1111
     55 C          62.7333   80.5157   10.0356 C.3     1  UNL1        0.1177
     56 C          63.1045   79.0643    9.9616 C.ar    1  UNL1       -0.0025
     57 C          64.0893   78.5935    8.9328 C.ar    1  UNL1       -0.0026
     58 C          64.4606   77.1420    8.8588 C.ar    1  UNL1       -0.0003
     59 C          63.8471   76.1614    9.8138 C.ar    1  UNL1       -0.0000
     60 C          62.8623   76.6321   10.8427 C.ar    1  UNL1       -0.0003
     61 C          62.4910   78.0836   10.9166 C.ar    1  UNL1       -0.0026
@<TRIPOS>BOND
     1    18    19    2
     2    19    17    1
     3    17     1    1
     4     1     2    1
     5     2     3    1
     6     3     4    2
     7     3     5   am
     8     5     6    1
     9     6    20    1
    10    20    21    1
    11    21    22   ar
    12    22    23   ar
    13    23    24   ar
    14    24    25    1
    15    24    26   ar
    16    26    27   ar
    17     6     7    1
    18     7     8    2
    19     7     9   am
    20     9    29    1
    21    29    30    1
    22    30    31   ar
    23    31    32   ar
    24    32    33   ar
    25    33    34   ar
    26    34    35   ar
    27    35    40    1
    28    40    41   ar
    29    41    42   ar
    30    42    43   ar
    31    43    46    1
    32    46    47    2
    33    46    48   am
    34    48    49    1
    35    49    50    1
    36    50    51    1
    37    51    52    1
    38    51    53    1
    39    53    54    1
    40    43    44   ar
    41    44    45   ar
    42    35    36   ar
    43    36    37   ar
    44    37    38    1
    45    37    39   ar
    46     9    10    1
    47    11    10    1
    48    11    12    1
    49    12    13   am
    50    13    14    2
    51    13    15   am
    52    15    55    1
    53    55    56    1
    54    56    57   ar
    55    57    58   ar
    56    58    59   ar
    57    59    60   ar
    58    60    61   ar
    59    12     1    1
    60    61    56   ar
    61    11     5    1
    62    27    21   ar
    63    39    30   ar
    64    39    34   ar
    65    45    40   ar
    66    54    48    1
    67    25    28    1
    68    15    16    1
@<TRIPOS>MOLECULE
*****
 61 68 0 0 0
SMALL
GASTEIGER

@<TRIPOS>ATOM
      1 N          65.3376   88.9339   14.4759 N.3     1  UNL1       -0.1862
      2 C          65.5507   87.6307   15.1872 C.3     1  UNL1        0.1775
      3 C          64.7308   86.4307   14.8158 C.2     1  UNL1        0.2452
      4 O          64.9439   85.1274   15.5272 O.2     1  UNL1       -0.2732
      5 N          63.6979   86.5340   13.7330 N.am    1  UNL1       -0.2541
      6 C          62.8781   85.3341   13.3616 C.3     1  UNL1        0.1577
      7 C          61.8452   85.4374   12.2789 C.2     1  UNL1        0.2445
      8 O          61.0253   84.2374   11.9075 O.2     1  UNL1       -0.2731
      9 N          61.6321   86.7407   11.5675 N.am    1  UNL1       -0.2705
     10 C          62.4519   87.9407   11.9389 C.3     1  UNL1        0.1359
     11 C          63.4849   87.8373   13.0217 C.3     1  UNL1        0.1908
     12 N          64.3047   89.0373   13.3931 N.am    1  UNL1       -0.1863
     13 C          64.0916   90.3406   12.6817 C.2     1  UNL1        0.3191
     14 O          63.0588   90.4439   11.5989 O.2     1  UNL1       -0.2512
     15 N          64.9115   91.5405   13.0531 N.am    1  UNL1       -0.2836
     16 H          65.5894   91.4727   13.7638 H       1  UNL1        0.1513
     17 C          66.1575   90.1339   14.8473 C.3     1  UNL1        0.1188
     18 C          66.3655   92.4390   16.0275 C.2     1  UNL1       -0.0034
     19 C          65.5439   91.2420   15.6507 C.2     1  UNL1       -0.0071
     20 C          63.0911   84.0308   14.0730 C.3     1  UNL1        0.0556
     21 C          63.0021   82.7394   13.3151 C.ar    1  UNL1       -0.0198
     22 C          63.6825   82.6017   11.9855 C.ar    1  UNL1       -0.0011
     23 C          63.5935   81.3103   11.2276 C.ar    1  UNL1        0.0363
     24 C          62.8241   80.1566   11.7994 C.ar    1  UNL1        0.1337
     25 O          62.7351   78.8652   11.0416 O.3     1  UNL1       -0.5055
     26 C          62.1437   80.2943   13.1292 C.ar    1  UNL1        0.0363
     27 C          62.2327   81.5857   13.8870 C.ar    1  UNL1       -0.0011
     28 H          63.1602   78.7791   10.2110 H       1  UNL1        0.2922
     29 C          60.5992   86.8440   10.4847 C.3     1  UNL1        0.1217
     30 C          60.3023   88.1731    9.8557 C.ar    1  UNL1        0.0135
     31 C          59.9072   89.3377   10.7145 C.ar    1  UNL1       -0.0012
     32 C          59.6103   90.6667   10.0856 C.ar    1  UNL1       -0.0002
     33 C          59.7085   90.8310    8.5979 C.ar    1  UNL1        0.0015
     34 C          60.1035   89.6664    7.7391 C.ar    1  UNL1        0.0170
     35 C          60.2826   89.5278    6.2563 C.ar    1  UNL1        0.0201
     36 C          60.6901   88.1132    5.9688 C.ar    1  UNL1        0.0760
     37 N          60.7630   87.3775    7.2739 N.ar    1  UNL1       -0.3242
     38 C          61.1333   85.9351    7.4534 C.3     1  UNL1        0.1305
     39 C          60.4004   88.3374    8.3680 C.ar    1  UNL1        0.0575
     40 C          60.0882   90.6134    5.2394 C.ar    1  UNL1        0.0207
     41 C          61.2528   91.0979    4.4277 C.ar    1  UNL1        0.0033
     42 C          61.0583   92.1834    3.4109 C.ar    1  UNL1        0.0238
     43 C          59.6993   92.7844    3.2059 C.ar    1  UNL1        0.1347
     44 N          58.5348   92.2998    4.0177 N.ar    1  UNL1       -0.2393
     45 C          58.7292   91.2144    5.0344 C.ar    1  UNL1        0.0990
     46 C          59.5050   93.8699    2.1891 C.2     1  UNL1        0.2668
     47 O          59.6942   95.3058    2.5795 O.2     1  UNL1       -0.2683
     48 N          59.1214   93.5196    0.7819 N.am    1  UNL1       -0.2720
     49 C          58.9322   92.0837    0.3915 C.3     1  UNL1        0.1111
     50 C          58.5486   91.7333   -1.0157 C.3     1  UNL1        0.0939
     51 N          58.3543   92.8188   -2.0324 N.3     1  UNL1       -0.2686
     52 C          57.9707   92.4685   -3.4395 C.3     1  UNL1        0.0897
     53 C          58.5435   94.2547   -1.6420 C.3     1  UNL1        0.0939
     54 C          58.9270   94.6051   -0.2348 C.3     1  UNL1        0.1111
     55 C          64.6985   92.8438   12.3418 C.3     1  UNL1        0.1177
     56 C          65.7305   93.3496   11.3779 C.ar    1  UNL1       -0.0025
     57 C          65.8812   94.8238   11.1457 C.ar    1  UNL1       -0.0026
     58 C          66.9132   95.3296   10.1818 C.ar    1  UNL1       -0.0003
     59 C          67.7946   94.3613    9.4501 C.ar    1  UNL1       -0.0000
     60 C          67.6439   92.8870    9.6824 C.ar    1  UNL1       -0.0003
     61 C          66.6119   92.3811   10.6462 C.ar    1  UNL1       -0.0026
@<TRIPOS>BOND
     1    18    19    2
     2    19    17    1
     3    17     1    1
     4     1     2    1
     5     2     3    1
     6     3     4    2
     7     3     5   am
     8     5     6    1
     9     6    20    1
    10    20    21    1
    11    21    22   ar
    12    22    23   ar
    13    23    24   ar
    14    24    25    1
    15    24    26   ar
    16    26    27   ar
    17     6     7    1
    18     7     8    2
    19     7     9   am
    20     9    29    1
    21    29    30    1
    22    30    31   ar
    23    31    32   ar
    24    32    33   ar
    25    33    34   ar
    26    34    35   ar
    27    35    40    1
    28    40    41   ar
    29    41    42   ar
    30    42    43   ar
    31    43    46    1
    32    46    47    2
    33    46    48   am
    34    48    49    1
    35    49    50    1
    36    50    51    1
    37    51    52    1
    38    51    53    1
    39    53    54    1
    40    43    44   ar
    41    44    45   ar
    42    35    36   ar
    43    36    37   ar
    44    37    38    1
    45    37    39   ar
    46     9    10    1
    47    11    10    1
    48    11    12    1
    49    12    13   am
    50    13    14    2
    51    13    15   am
    52    15    55    1
    53    55    56    1
    54    56    57   ar
    55    57    58   ar
    56    58    59   ar
    57    59    60   ar
    58    60    61   ar
    59    12     1    1
    60    61    56   ar
    61    11     5    1
    62    27    21   ar
    63    39    30   ar
    64    39    34   ar
    65    45    40   ar
    66    54    48    1
    67    25    28    1
    68    15    16    1
@<TRIPOS>MOLECULE
*****
 61 68 0 0 0
SMALL
GASTEIGER

@<TRIPOS>ATOM
      1 N          65.3926   89.1662   14.5011 N.3     1  UNL1       -0.1862
      2 C          65.6249   87.8940   15.2611 C.3     1  UNL1        0.1775
      3 C          64.8069   86.6754   14.9516 C.2     1  UNL1        0.2452
      4 O          65.0393   85.4032   15.7117 O.2     1  UNL1       -0.2732
      5 N          63.7566   86.7289   13.8821 N.am    1  UNL1       -0.2541
      6 C          62.9386   85.5102   13.5726 C.3     1  UNL1        0.1577
      7 C          61.8882   85.5637   12.5031 C.2     1  UNL1        0.2445
      8 O          61.0702   84.3451   12.1936 O.2     1  UNL1       -0.2731
      9 N          61.6558   86.8359   11.7430 N.am    1  UNL1       -0.2705
     10 C          62.4738   88.0545   12.0525 C.3     1  UNL1        0.1359
     11 C          63.5242   88.0010   13.1221 C.3     1  UNL1        0.1908
     12 N          64.3423   89.2196   13.4316 N.am    1  UNL1       -0.1863
     13 C          64.1099   90.4918   12.6715 C.2     1  UNL1        0.3191
     14 O          63.0595   90.5453   11.6020 O.2     1  UNL1       -0.2512
     15 N          64.9279   91.7105   12.9810 N.am    1  UNL1       -0.2836
     16 H          65.6173   91.6753   13.6829 H       1  UNL1        0.1513
     17 C          66.2106   90.3848   14.8105 C.3     1  UNL1        0.1188
     18 C          64.2925   91.3367   16.2817 C.2     1  UNL1       -0.0034
     19 C          65.6006   91.5241   15.5719 C.2     1  UNL1       -0.0071
     20 C          63.1709   84.2381   14.3326 C.3     1  UNL1        0.0556
     21 C          63.0283   82.9146   13.6412 C.ar    1  UNL1       -0.0198
     22 C          62.1728   81.8410   14.2456 C.ar    1  UNL1       -0.0011
     23 C          62.0302   80.5175   13.5542 C.ar    1  UNL1        0.0363
     24 C          62.7431   80.2677   12.2583 C.ar    1  UNL1        0.1337
     25 O          62.6005   78.9442   11.5669 O.3     1  UNL1       -0.5055
     26 C          63.5986   81.3414   11.6538 C.ar    1  UNL1        0.0363
     27 C          63.7412   82.6648   12.3453 C.ar    1  UNL1       -0.0011
     28 H          62.0661   78.2735   11.9445 H       1  UNL1        0.2922
     29 C          60.6055   86.8894   10.6735 C.3     1  UNL1        0.1217
     30 C          60.3243   88.1798    9.9623 C.ar    1  UNL1        0.0135
     31 C          60.0020   89.4153   10.7495 C.ar    1  UNL1       -0.0012
     32 C          59.7209   90.7057   10.0384 C.ar    1  UNL1       -0.0002
     33 C          59.7620   90.7606    8.5400 C.ar    1  UNL1        0.0015
     34 C          60.0843   89.5251    7.7527 C.ar    1  UNL1        0.0170
     35 C          60.1969   89.2756    6.2779 C.ar    1  UNL1        0.0201
     36 C          60.5477   87.8311    6.0777 C.ar    1  UNL1        0.0760
     37 N          60.6518   87.1878    7.4286 N.ar    1  UNL1       -0.3242
     38 C          60.9841   85.7499    7.6972 C.3     1  UNL1        0.1305
     39 C          60.3654   88.2347    8.4639 C.ar    1  UNL1        0.0575
     40 C          59.9943   90.2923    5.1937 C.ar    1  UNL1        0.0207
     41 C          58.6383   90.8949    4.9745 C.ar    1  UNL1        0.0033
     42 C          58.4358   91.9115    3.8903 C.ar    1  UNL1        0.0238
     43 C          59.5892   92.3256    3.0254 C.ar    1  UNL1        0.1347
     44 N          60.9453   91.7230    3.2446 N.ar    1  UNL1       -0.2393
     45 C          61.1478   90.7064    4.3288 C.ar    1  UNL1        0.0990
     46 C          59.3866   93.3422    1.9413 C.2     1  UNL1        0.2668
     47 O          58.0430   93.4869    1.2905 O.2     1  UNL1       -0.2683
     48 N          60.5277   94.2141    1.5078 N.am    1  UNL1       -0.2720
     49 C          61.8714   94.0694    2.1586 C.3     1  UNL1        0.1111
     50 C          63.0124   94.9412    1.7253 C.3     1  UNL1        0.0939
     51 N          62.8098   95.9578    0.6411 N.3     1  UNL1       -0.2686
     52 C          63.9508   96.8297    0.2078 C.3     1  UNL1        0.0897
     53 C          61.4661   96.1026   -0.0097 C.3     1  UNL1        0.0939
     54 C          60.3250   95.2307    0.4237 C.3     1  UNL1        0.1111
     55 C          64.6956   92.9826   12.2209 C.3     1  UNL1        0.1177
     56 C          65.7107   93.4563   11.2234 C.ar    1  UNL1       -0.0025
     57 C          65.7557   94.9027   10.8284 C.ar    1  UNL1       -0.0026
     58 C          66.7708   95.3764    9.8308 C.ar    1  UNL1       -0.0003
     59 C          67.7409   94.4038    9.2283 C.ar    1  UNL1       -0.0000
     60 C          67.6958   92.9574    9.6233 C.ar    1  UNL1       -0.0003
     61 C          66.6807   92.4837   10.6208 C.ar    1  UNL1       -0.0026
@<TRIPOS>BOND
     1    18    19    2
     2    19    17    1
     3    17     1    1
     4     1     2    1
     5     2     3    1
     6     3     4    2
     7     3     5   am
     8     5     6    1
     9     6    20    1
    10    20    21    1
    11    21    22   ar
    12    22    23   ar
    13    23    24   ar
    14    24    25    1
    15    24    26   ar
    16    26    27   ar
    17     6     7    1
    18     7     8    2
    19     7     9   am
    20     9    29    1
    21    29    30    1
    22    30    31   ar
    23    31    32   ar
    24    32    33   ar
    25    33    34   ar
    26    34    35   ar
    27    35    40    1
    28    40    41   ar
    29    41    42   ar
    30    42    43   ar
    31    43    46    1
    32    46    47    2
    33    46    48   am
    34    48    49    1
    35    49    50    1
    36    50    51    1
    37    51    52    1
    38    51    53    1
    39    53    54    1
    40    43    44   ar
    41    44    45   ar
    42    35    36   ar
    43    36    37   ar
    44    37    38    1
    45    37    39   ar
    46     9    10    1
    47    11    10    1
    48    11    12    1
    49    12    13   am
    50    13    14    2
    51    13    15   am
    52    15    55    1
    53    55    56    1
    54    56    57   ar
    55    57    58   ar
    56    58    59   ar
    57    59    60   ar
    58    60    61   ar
    59    12     1    1
    60    61    56   ar
    61    11     5    1
    62    27    21   ar
    63    39    30   ar
    64    39    34   ar
    65    45    40   ar
    66    54    48    1
    67    25    28    1
    68    15    16    1
