@<TRIPOS>MOLECULE
*****
 30 33 0 0 0
SMALL
GASTEIGER

@<TRIPOS>ATOM
      1 N          64.5711   89.1495   14.7312 N.am    1  UNL1       -0.2665
      2 C          63.6721   89.8927   15.6743 C.2     1  UNL1        0.2474
      3 O          62.4719   89.2103   16.2608 O.2     1  UNL1       -0.2729
      4 H          65.3589   89.5973   14.3463 H       1  UNL1        0.1564
      5 C          63.6675   84.8730   13.6612 C.ar    1  UNL1        0.1045
      6 C          64.4332   85.1874   14.9121 C.ar    1  UNL1        0.0239
      7 C          64.7344   86.6129   15.2687 C.ar    1  UNL1        0.0379
      8 C          64.2699   87.7240   14.3745 C.ar    1  UNL1        0.1560
      9 N          63.5041   87.4096   13.1236 N.ar    1  UNL1       -0.1328
     10 N          63.2029   85.9841   12.7669 N.ar    1  UNL1       -0.1467
     11 C          62.4626   79.1710   12.2344 C.3     1  UNL1        0.0521
     12 C          62.7638   80.5965   12.5911 C.ar    1  UNL1        0.0594
     13 C          62.9852   81.6100   11.5076 C.ar    1  UNL1        0.0148
     14 C          63.2864   83.0355   11.8643 C.ar    1  UNL1        0.0043
     15 C          63.3663   83.4475   13.3045 C.ar    1  UNL1        0.0385
     16 C          63.1449   82.4340   14.3879 C.ar    1  UNL1        0.1000
     17 N          62.8437   81.0085   14.0312 N.ar    1  UNL1       -0.2481
     18 C          63.9733   91.3182   16.0310 C.3     1  UNL1        0.1775
     19 N          65.2063   91.9816   15.4925 N.pl3   1  UNL1       -0.2964
     20 C          66.2810   92.4425   16.4319 C.3     1  UNL1        0.0917
     21 C          67.5138   93.1059   15.8934 C.3     1  UNL1        0.0263
     22 C          67.6719   93.3083   14.4155 C.3     1  UNL1        0.0342
     23 C          66.5972   92.8473   13.4762 C.2     1  UNL1        0.0496
     24 C          65.3644   92.1840   14.0147 C.2     1  UNL1        0.1032
     25 C          64.4800   91.8370   12.8538 C.2     1  UNL1        0.2683
     26 O          63.1439   91.1599   12.9347 O.2     1  UNL1       -0.2681
     27 N          65.1663   92.2859   11.5978 N.am    1  UNL1       -0.2203
     28 C          64.6371   92.1366   10.2022 C.3     1  UNL1        0.1235
     29 C          66.4748   92.9103   11.9825 C.2     1  UNL1        0.2524
     30 O          67.4838   93.4951   11.0391 O.2     1  UNL1       -0.2698
@<TRIPOS>BOND
     1    11    12    1
     2    12    13   ar
     3    13    14   ar
     4    14    15   ar
     5    15     5    1
     6     5     6   ar
     7     6     7   ar
     8     7     8   ar
     9     8     1    1
    10     1     2   am
    11     2     3    2
    12     2    18    1
    13    18    19    1
    14    19    20    1
    15    20    21    1
    16    21    22    1
    17    22    23    1
    18    23    24    2
    19    24    25    1
    20    25    26    2
    21    25    27   am
    22    27    28    1
    23    27    29   am
    24    29    30    2
    25     8     9   ar
    26     9    10   ar
    27    15    16   ar
    28    16    17   ar
    29    17    12   ar
    30    10     5   ar
    31    24    19    1
    32    29    23    1
    33     1     4    1
@<TRIPOS>MOLECULE
*****
 30 33 0 0 0
SMALL
GASTEIGER

@<TRIPOS>ATOM
      1 N          63.6995   89.2326   12.8759 N.am    1  UNL1       -0.2665
      2 C          63.0765   90.0211   11.7623 C.2     1  UNL1        0.2474
      3 O          62.2341   89.3280   10.7326 O.2     1  UNL1       -0.2729
      4 H          64.2524   89.6875   13.5517 H       1  UNL1        0.1564
      5 C          63.0419   84.7881   13.1278 C.ar    1  UNL1        0.1045
      6 C          63.9221   85.4740   14.1301 C.ar    1  UNL1        0.0239
      7 C          64.1413   86.9555   14.0461 C.ar    1  UNL1        0.0379
      8 C          63.4803   87.7511   12.9599 C.ar    1  UNL1        0.1560
      9 N          62.6001   87.0652   11.9574 N.ar    1  UNL1       -0.1328
     10 N          62.3809   85.5837   12.0414 N.ar    1  UNL1       -0.1467
     11 C          62.1650   78.8620   13.4636 C.3     1  UNL1        0.0521
     12 C          62.3842   80.3435   13.3796 C.ar    1  UNL1        0.0594
     13 C          62.8711   80.9584   12.1009 C.ar    1  UNL1        0.0148
     14 C          63.0903   82.4399   12.0170 C.ar    1  UNL1        0.0043
     15 C          62.8227   83.3065   13.2117 C.ar    1  UNL1        0.0385
     16 C          62.3358   82.6917   14.4903 C.ar    1  UNL1        0.1000
     17 N          62.1166   81.2102   14.5743 N.ar    1  UNL1       -0.2481
     18 C          63.2957   91.5026   11.6784 C.3     1  UNL1        0.1775
     19 N          64.6901   92.0522   11.6181 N.pl3   1  UNL1       -0.2964
     20 C          65.3118   92.3767   10.2922 C.3     1  UNL1        0.0917
     21 C          66.7061   92.9262   10.2320 C.3     1  UNL1        0.0263
     22 C          67.4789   93.1513   11.4978 C.3     1  UNL1        0.0342
     23 C          66.8572   92.8269   12.8237 C.2     1  UNL1        0.0496
     24 C          65.4629   92.2773   12.8839 C.2     1  UNL1        0.1032
     25 C          65.1149   92.0529   14.3257 C.2     1  UNL1        0.2683
     26 O          63.8157   91.5124   14.8453 O.2     1  UNL1       -0.2681
     27 N          66.2942   92.4637   15.1565 N.am    1  UNL1       -0.2203
     28 C          66.3815   92.4064   16.6529 C.3     1  UNL1        0.1235
     29 C          67.3710   92.9421   14.2282 C.2     1  UNL1        0.2524
     30 O          68.7241   93.4471   14.6334 O.2     1  UNL1       -0.2698
@<TRIPOS>BOND
     1    11    12    1
     2    12    13   ar
     3    13    14   ar
     4    14    15   ar
     5    15     5    1
     6     5     6   ar
     7     6     7   ar
     8     7     8   ar
     9     8     1    1
    10     1     2   am
    11     2     3    2
    12     2    18    1
    13    18    19    1
    14    19    20    1
    15    20    21    1
    16    21    22    1
    17    22    23    1
    18    23    24    2
    19    24    25    1
    20    25    26    2
    21    25    27   am
    22    27    28    1
    23    27    29   am
    24    29    30    2
    25     8     9   ar
    26     9    10   ar
    27    15    16   ar
    28    16    17   ar
    29    17    12   ar
    30    10     5   ar
    31    24    19    1
    32    29    23    1
    33     1     4    1
@<TRIPOS>MOLECULE
*****
 30 33 0 0 0
SMALL
GASTEIGER

@<TRIPOS>ATOM
      1 N          62.1162   88.6290   11.5619 N.am    1  UNL1       -0.2665
      2 C          60.6744   88.7757   11.9488 C.2     1  UNL1        0.2474
      3 O          60.2840   89.7265   13.0413 O.2     1  UNL1       -0.2729
      4 H          62.3724   88.0049   10.8449 H       1  UNL1        0.1564
      5 C          65.2705   91.0415   13.6787 C.ar    1  UNL1        0.1045
      6 C          64.6381   91.5692   12.4251 C.ar    1  UNL1        0.0239
      7 C          63.5867   90.7650   11.7195 C.ar    1  UNL1        0.0379
      8 C          63.1676   89.4332   12.2675 C.ar    1  UNL1        0.1560
      9 N          63.8000   88.9054   13.5212 N.ar    1  UNL1       -0.1328
     10 N          64.8514   89.7095   14.2268 N.ar    1  UNL1       -0.1467
     11 C          69.4761   94.2581   16.5010 C.3     1  UNL1        0.0521
     12 C          68.4247   93.4539   15.7954 C.ar    1  UNL1        0.0594
     13 C          68.7647   92.7178   14.5334 C.ar    1  UNL1        0.0148
     14 C          67.7133   91.9136   13.8278 C.ar    1  UNL1        0.0043
     15 C          66.3219   91.8456   14.3843 C.ar    1  UNL1        0.0385
     16 C          65.9820   92.5818   15.6462 C.ar    1  UNL1        0.1000
     17 N          67.0334   93.3859   16.3518 N.ar    1  UNL1       -0.2481
     18 C          59.6230   87.9715   11.2432 C.3     1  UNL1        0.1775
     19 N          59.8334   87.5460    9.8203 N.pl3   1  UNL1       -0.2964
     20 C          59.0095   88.1561    8.7254 C.3     1  UNL1        0.0917
     21 C          59.2199   87.7305    7.3025 C.3     1  UNL1        0.0263
     22 C          60.2542   86.6949    6.9745 C.3     1  UNL1        0.0342
     23 C          61.0781   86.0847    8.0694 C.2     1  UNL1        0.0496
     24 C          60.8677   86.5103    9.4923 C.2     1  UNL1        0.1032
     25 C          61.8231   85.7381   10.3532 C.2     1  UNL1        0.2683
     26 O          61.9545   85.8492   11.8433 O.2     1  UNL1       -0.2681
     27 N          62.6239   84.8353    9.4624 N.am    1  UNL1       -0.2203
     28 C          63.6968   83.8851    9.9052 C.3     1  UNL1        0.1235
     29 C          62.1635   85.0496    8.0509 C.2     1  UNL1        0.2524
     30 O          62.6951   84.3512    6.8345 O.2     1  UNL1       -0.2698
@<TRIPOS>BOND
     1    11    12    1
     2    12    13   ar
     3    13    14   ar
     4    14    15   ar
     5    15     5    1
     6     5     6   ar
     7     6     7   ar
     8     7     8   ar
     9     8     1    1
    10     1     2   am
    11     2     3    2
    12     2    18    1
    13    18    19    1
    14    19    20    1
    15    20    21    1
    16    21    22    1
    17    22    23    1
    18    23    24    2
    19    24    25    1
    20    25    26    2
    21    25    27   am
    22    27    28    1
    23    27    29   am
    24    29    30    2
    25     8     9   ar
    26     9    10   ar
    27    15    16   ar
    28    16    17   ar
    29    17    12   ar
    30    10     5   ar
    31    24    19    1
    32    29    23    1
    33     1     4    1
@<TRIPOS>MOLECULE
*****
 30 33 0 0 0
SMALL
GASTEIGER

@<TRIPOS>ATOM
      1 N          62.8174   88.1958   12.1207 N.am    1  UNL1       -0.2665
      2 C          62.5237   89.0760   10.9422 C.2     1  UNL1        0.2474
      3 O          62.2247   88.4647    9.6054 O.2     1  UNL1       -0.2729
      4 H          63.0136   88.5971   12.9980 H       1  UNL1        0.1564
      5 C          62.8013   83.7209   11.6462 C.ar    1  UNL1        0.1045
      6 C          62.2908   84.5944   10.5387 C.ar    1  UNL1        0.0239
      7 C          62.2962   86.0860   10.6969 C.ar    1  UNL1        0.0379
      8 C          62.8120   86.7042   11.9625 C.ar    1  UNL1        0.1560
      9 N          63.3225   85.8307   13.0700 N.ar    1  UNL1       -0.1328
     10 N          63.3171   84.3391   12.9118 N.ar    1  UNL1       -0.1467
     11 C          62.7798   77.7544   11.0134 C.3     1  UNL1        0.0521
     12 C          62.7851   79.2460   11.1716 C.ar    1  UNL1        0.0594
     13 C          63.1012   80.1237    9.9969 C.ar    1  UNL1        0.0148
     14 C          63.1065   81.6153   10.1550 C.ar    1  UNL1        0.0043
     15 C          62.7959   82.2293   11.4880 C.ar    1  UNL1        0.0385
     16 C          62.4799   81.3517   12.6626 C.ar    1  UNL1        0.1000
     17 N          62.4745   79.8600   12.5044 N.ar    1  UNL1       -0.2481
     18 C          62.5291   90.5677   11.1004 C.3     1  UNL1        0.1775
     19 N          63.7633   91.2655   11.5903 N.pl3   1  UNL1       -0.2964
     20 C          64.6750   91.9496   10.6154 C.3     1  UNL1        0.0917
     21 C          65.9091   92.6474   11.1054 C.3     1  UNL1        0.0263
     22 C          66.2314   92.6610   12.5703 C.3     1  UNL1        0.0342
     23 C          65.3197   91.9768   13.5452 C.2     1  UNL1        0.0496
     24 C          64.0856   91.2791   13.0552 C.2     1  UNL1        0.1032
     25 C          63.3805   90.6952   14.2436 C.2     1  UNL1        0.2683
     26 O          62.1016   89.9119   14.2128 O.2     1  UNL1       -0.2681
     27 N          64.1788   91.0321   15.4679 N.am    1  UNL1       -0.2203
     28 C          63.8385   90.6450   16.8766 C.3     1  UNL1        0.1235
     29 C          65.3773   91.8242   15.0363 C.2     1  UNL1        0.2524
     30 O          66.4459   92.3682   15.9375 O.2     1  UNL1       -0.2698
@<TRIPOS>BOND
     1    11    12    1
     2    12    13   ar
     3    13    14   ar
     4    14    15   ar
     5    15     5    1
     6     5     6   ar
     7     6     7   ar
     8     7     8   ar
     9     8     1    1
    10     1     2   am
    11     2     3    2
    12     2    18    1
    13    18    19    1
    14    19    20    1
    15    20    21    1
    16    21    22    1
    17    22    23    1
    18    23    24    2
    19    24    25    1
    20    25    26    2
    21    25    27   am
    22    27    28    1
    23    27    29   am
    24    29    30    2
    25     8     9   ar
    26     9    10   ar
    27    15    16   ar
    28    16    17   ar
    29    17    12   ar
    30    10     5   ar
    31    24    19    1
    32    29    23    1
    33     1     4    1
@<TRIPOS>MOLECULE
*****
 30 33 0 0 0
SMALL
GASTEIGER

@<TRIPOS>ATOM
      1 N          63.2260   87.7577   12.7241 N.am    1  UNL1       -0.2665
      2 C          62.4489   88.7291   11.8861 C.2     1  UNL1        0.2474
      3 O          61.5994   88.2313   10.7544 O.2     1  UNL1       -0.2729
      4 H          63.7836   88.0844   13.4669 H       1  UNL1        0.1564
      5 C          63.0092   83.3500   11.8433 C.ar    1  UNL1        0.1045
      6 C          62.4056   84.3364   10.8880 C.ar    1  UNL1        0.0239
      7 C          62.4779   85.8056   11.1816 C.ar    1  UNL1        0.0379
      8 C          63.1538   86.2885   12.4305 C.ar    1  UNL1        0.1560
      9 N          63.7574   85.3021   13.3860 N.ar    1  UNL1       -0.1328
     10 N          63.6851   83.8329   13.0924 N.ar    1  UNL1       -0.1467
     11 C          62.7201   77.4732   10.6689 C.3     1  UNL1        0.0521
     12 C          62.7923   78.9424   10.9625 C.ar    1  UNL1        0.0594
     13 C          63.0930   79.9137    9.8597 C.ar    1  UNL1        0.0148
     14 C          63.1653   81.3829   10.1533 C.ar    1  UNL1        0.0043
     15 C          62.9369   81.8808   11.5497 C.ar    1  UNL1        0.0385
     16 C          62.6362   80.9095   12.6525 C.ar    1  UNL1        0.1000
     17 N          62.5640   79.4403   12.3589 N.ar    1  UNL1       -0.2481
     18 C          62.5212   90.1983   12.1797 C.3     1  UNL1        0.1775
     19 N          63.4575   90.7070   13.2355 N.pl3   1  UNL1       -0.2964
     20 C          63.2740   90.2899   14.6646 C.3     1  UNL1        0.0917
     21 C          64.2103   90.7986   15.7204 C.3     1  UNL1        0.0263
     22 C          65.3300   91.7243   15.3470 C.3     1  UNL1        0.0342
     23 C          65.5134   92.1413   13.9179 C.2     1  UNL1        0.0496
     24 C          64.5771   91.6327   12.8622 C.2     1  UNL1        0.1032
     25 C          65.0033   92.2128   11.5461 C.2     1  UNL1        0.2683
     26 O          64.3453   91.9686   10.2204 O.2     1  UNL1       -0.2681
     27 N          66.2030   93.0800   11.7886 N.am    1  UNL1       -0.2203
     28 C          66.9554   93.8552   10.7479 C.3     1  UNL1        0.1235
     29 C          66.5182   93.0358   13.2544 C.2     1  UNL1        0.2524
     30 O          67.6411   93.7591   13.9369 O.2     1  UNL1       -0.2698
@<TRIPOS>BOND
     1    11    12    1
     2    12    13   ar
     3    13    14   ar
     4    14    15   ar
     5    15     5    1
     6     5     6   ar
     7     6     7   ar
     8     7     8   ar
     9     8     1    1
    10     1     2   am
    11     2     3    2
    12     2    18    1
    13    18    19    1
    14    19    20    1
    15    20    21    1
    16    21    22    1
    17    22    23    1
    18    23    24    2
    19    24    25    1
    20    25    26    2
    21    25    27   am
    22    27    28    1
    23    27    29   am
    24    29    30    2
    25     8     9   ar
    26     9    10   ar
    27    15    16   ar
    28    16    17   ar
    29    17    12   ar
    30    10     5   ar
    31    24    19    1
    32    29    23    1
    33     1     4    1
@<TRIPOS>MOLECULE
*****
 30 33 0 0 0
SMALL
GASTEIGER

@<TRIPOS>ATOM
      1 N          62.8387   87.7081   12.4534 N.am    1  UNL1       -0.2665
      2 C          63.5937   88.2727   13.6201 C.2     1  UNL1        0.2474
      3 O          64.3448   87.3574   14.5412 O.2     1  UNL1       -0.2729
      4 H          62.3458   88.3088   11.8489 H       1  UNL1        0.1564
      5 C          62.8269   83.2689   11.7163 C.ar    1  UNL1        0.1045
      6 C          62.5813   84.2183   10.5813 C.ar    1  UNL1        0.0239
      7 C          62.5853   85.6981   10.8270 C.ar    1  UNL1        0.0379
      8 C          62.8348   86.2284   12.2077 C.ar    1  UNL1        0.1560
      9 N          63.0803   85.2790   13.3428 N.ar    1  UNL1       -0.1328
     10 N          63.0764   83.7993   13.0971 N.ar    1  UNL1       -0.1467
     11 C          62.8110   77.3500   10.7334 C.3     1  UNL1        0.0521
     12 C          62.8150   78.8297   10.9792 C.ar    1  UNL1        0.0594
     13 C          63.0858   79.7771    9.8481 C.ar    1  UNL1        0.0148
     14 C          63.0898   81.2568   10.0938 C.ar    1  UNL1        0.0043
     15 C          62.8229   81.7892   11.4706 C.ar    1  UNL1        0.0385
     16 C          62.5521   80.8419   12.6015 C.ar    1  UNL1        0.1000
     17 N          62.5481   79.3621   12.3558 N.ar    1  UNL1       -0.2481
     18 C          63.5977   89.7524   13.8658 C.3     1  UNL1        0.1775
     19 N          63.9436   90.6966   12.7527 N.pl3   1  UNL1       -0.2964
     20 C          63.2730   90.5602   11.4179 C.3     1  UNL1        0.0917
     21 C          63.6189   91.5043   10.3049 C.3     1  UNL1        0.0263
     22 C          64.6354   92.5849   10.5266 C.3     1  UNL1        0.0342
     23 C          65.3060   92.7213   11.8614 C.2     1  UNL1        0.0496
     24 C          64.9601   91.7771   12.9744 C.2     1  UNL1        0.1032
     25 C          65.7796   92.1535   14.1732 C.2     1  UNL1        0.2683
     26 O          65.7516   91.4727   15.5094 O.2     1  UNL1       -0.2681
     27 N          66.6319   93.3303   13.8009 N.am    1  UNL1       -0.2203
     28 C          67.6060   94.0330   14.6996 C.3     1  UNL1        0.1235
     29 C          66.3392   93.6812   12.3722 C.2     1  UNL1        0.2524
     30 O          66.9692   94.7963   11.5913 O.2     1  UNL1       -0.2698
@<TRIPOS>BOND
     1    11    12    1
     2    12    13   ar
     3    13    14   ar
     4    14    15   ar
     5    15     5    1
     6     5     6   ar
     7     6     7   ar
     8     7     8   ar
     9     8     1    1
    10     1     2   am
    11     2     3    2
    12     2    18    1
    13    18    19    1
    14    19    20    1
    15    20    21    1
    16    21    22    1
    17    22    23    1
    18    23    24    2
    19    24    25    1
    20    25    26    2
    21    25    27   am
    22    27    28    1
    23    27    29   am
    24    29    30    2
    25     8     9   ar
    26     9    10   ar
    27    15    16   ar
    28    16    17   ar
    29    17    12   ar
    30    10     5   ar
    31    24    19    1
    32    29    23    1
    33     1     4    1
