@<TRIPOS>MOLECULE
*****
 38 41 0 0 0
SMALL
GASTEIGER

@<TRIPOS>ATOM
      1 C          63.9220   86.5806   15.5234 C.ar    1  UNL1        0.0611
      2 C          63.1164   86.2153   16.7348 C.ar    1  UNL1        0.1037
      3 N          62.7044   87.4856   17.4178 N.ar    1  UNL1       -0.2269
      4 C          63.2554   88.6361   16.6284 C.ar    1  UNL1        0.1407
      5 N          63.1691   90.1206   16.8246 N.ar    1  UNL1       -0.3374
      6 C          63.8353   91.0458   15.8499 C.ar    1  UNL1        0.0736
      7 C          64.5878   90.4865   14.6790 C.ar    1  UNL1        0.0231
      8 C          64.6741   89.0019   14.4829 C.ar    1  UNL1        0.0048
      9 C          64.0079   88.0767   15.4576 C.ar    1  UNL1        0.0386
     10 H          62.6752   90.4878   17.5930 H       1  UNL1        0.1674
     11 C          65.2540   91.4118   13.7043 C.ar    1  UNL1        0.0740
     12 C          64.5532   91.7948   12.4346 C.ar    1  UNL1        0.1083
     13 N          65.2194   92.7201   11.4599 N.ar    1  UNL1       -0.1925
     14 C          66.5865   93.2623   11.7549 C.ar    1  UNL1        0.3226
     15 N          67.2874   92.8792   13.0246 N.ar    1  UNL1       -0.1590
     16 C          66.6211   91.9540   13.9993 C.ar    1  UNL1        0.2302
     17 O          67.2527   94.1876   10.7802 O.3     1  UNL1       -0.4426
     18 C          67.5984   93.7038    9.4031 C.3     1  UNL1        0.2559
     19 O          67.3220   91.5709   15.2690 O.3     1  UNL1       -0.4560
     20 C          68.1823   92.5717   15.9821 C.3     1  UNL1        0.2542
     21 C          64.5342   85.6186   14.5487 C.2     1  UNL1        0.2015
     22 O          65.9500   85.1603   14.7361 O.2     1  UNL1       -0.2864
     23 C          62.3910   85.5764   11.2087 C.ar    1  UNL1        0.0920
     24 C          62.1230   84.1078   11.0625 C.ar    1  UNL1        0.0204
     25 C          62.6586   83.1428   12.0783 C.ar    1  UNL1        0.0312
     26 C          63.4623   83.6464   13.2404 C.ar    1  UNL1        0.1454
     27 F          63.9980   82.6814   14.2562 F       1  UNL1       -0.2040
     28 C          63.7304   85.1150   13.3866 C.ar    1  UNL1        0.0951
     29 C          63.1947   86.0799   12.3708 C.ar    1  UNL1        0.1598
     30 F          63.4629   87.5485   12.5171 F       1  UNL1       -0.2026
     31 N          61.8554   86.5413   10.1929 N.pl3   1  UNL1       -0.2166
     32 H          61.7154   87.4850   10.4362 H       1  UNL1        0.1734
     33 S          61.5329   86.0685    8.8064 S.O2    1  UNL1        0.0540
     34 O          62.9822   85.7589    8.5749 O.2     1  UNL1       -0.1545
     35 O          60.0836   86.3781    9.0379 O.2     1  UNL1       -0.1545
     36 C          61.2103   85.5957    7.4199 C.3     1  UNL1        0.1724
     37 C          61.8092   84.1013    5.3806 C.3     1  UNL1        0.0019
     38 C          62.2151   84.7919    6.6488 C.3     1  UNL1        0.0273
@<TRIPOS>BOND
     1    37    38    1
     2    38    36    1
     3    36    33    1
     4    33    34    2
     5    33    35    2
     6    33    31    1
     7    31    23    1
     8    23    24   ar
     9    24    25   ar
    10    25    26   ar
    11    26    27    1
    12    26    28   ar
    13    28    21    1
    14    21    22    2
    15    21     1    1
    16     1     2   ar
    17     2     3   ar
    18     3     4   ar
    19     4     5   ar
    20     5     6   ar
    21     6     7   ar
    22     7    11    1
    23    11    12   ar
    24    12    13   ar
    25    13    14   ar
    26    14    17    1
    27    17    18    1
    28    14    15   ar
    29    15    16   ar
    30    16    19    1
    31    19    20    1
    32     7     8   ar
    33     8     9   ar
    34    28    29   ar
    35    29    30    1
    36    29    23   ar
    37     9     1   ar
    38     9     4    1
    39    16    11   ar
    40    31    32    1
    41     5    10    1
@<TRIPOS>MOLECULE
*****
 38 41 0 0 0
SMALL
GASTEIGER

@<TRIPOS>ATOM
      1 C          63.9150   86.5753   15.5357 C.ar    1  UNL1        0.0611
      2 C          63.1105   86.1714   16.7356 C.ar    1  UNL1        0.1037
      3 N          62.6746   87.4202   17.4430 N.ar    1  UNL1       -0.2269
      4 C          63.2098   88.5959   16.6804 C.ar    1  UNL1        0.1407
      5 N          63.0980   90.0744   16.9071 N.ar    1  UNL1       -0.3374
      6 C          63.7529   91.0307   15.9550 C.ar    1  UNL1        0.0736
      7 C          64.5196   90.5085   14.7762 C.ar    1  UNL1        0.0231
      8 C          64.6313   89.0299   14.5495 C.ar    1  UNL1        0.0048
      9 C          63.9764   88.0737   15.5016 C.ar    1  UNL1        0.0386
     10 H          62.5949   90.4172   17.6808 H       1  UNL1        0.1674
     11 C          65.1745   91.4649   13.8241 C.ar    1  UNL1        0.0740
     12 C          66.4153   92.2007   14.2351 C.ar    1  UNL1        0.1083
     13 N          67.0702   93.1570   13.2830 N.ar    1  UNL1       -0.1925
     14 C          66.4843   93.3776   11.9199 C.ar    1  UNL1        0.3226
     15 N          65.2434   92.6417   11.5089 N.ar    1  UNL1       -0.1590
     16 C          64.5886   91.6854   12.4610 C.ar    1  UNL1        0.2302
     17 O          67.1391   94.3339   10.9678 O.3     1  UNL1       -0.4426
     18 C          66.8898   94.2132    9.4936 C.3     1  UNL1        0.2559
     19 O          63.3477   90.9495   12.0501 O.3     1  UNL1       -0.4560
     20 C          62.9138   90.9543   10.6142 C.3     1  UNL1        0.2542
     21 C          64.5472   85.6442   14.5440 C.2     1  UNL1        0.2015
     22 O          65.9770   85.2245   14.7152 O.2     1  UNL1       -0.2864
     23 C          62.4181   85.5803   11.1954 C.ar    1  UNL1        0.0920
     24 C          62.1542   84.1103   11.0553 C.ar    1  UNL1        0.0204
     25 C          62.6880   83.1517   12.0781 C.ar    1  UNL1        0.0312
     26 C          63.4856   83.6629   13.2410 C.ar    1  UNL1        0.1454
     27 F          64.0194   82.7043   14.2638 F       1  UNL1       -0.2040
     28 C          63.7495   85.1329   13.3811 C.ar    1  UNL1        0.0951
     29 C          63.2158   86.0915   12.3583 C.ar    1  UNL1        0.1598
     30 F          63.4798   87.5615   12.4984 F       1  UNL1       -0.2026
     31 N          61.8844   86.5389   10.1726 N.pl3   1  UNL1       -0.2166
     32 H          61.7587   87.4873   10.4051 H       1  UNL1        0.1734
     33 S          61.5422   86.0526    8.7955 S.O2    1  UNL1        0.0540
     34 O          62.9851   85.7215    8.5539 O.2     1  UNL1       -0.1545
     35 O          60.0993   86.3837    9.0372 O.2     1  UNL1       -0.1545
     36 C          61.1999   85.5663    7.4185 C.3     1  UNL1        0.1724
     37 C          61.8047   84.0874    5.3697 C.3     1  UNL1        0.0019
     38 C          62.2198   84.8181    6.6122 C.3     1  UNL1        0.0273
@<TRIPOS>BOND
     1    37    38    1
     2    38    36    1
     3    36    33    1
     4    33    34    2
     5    33    35    2
     6    33    31    1
     7    31    23    1
     8    23    24   ar
     9    24    25   ar
    10    25    26   ar
    11    26    27    1
    12    26    28   ar
    13    28    21    1
    14    21    22    2
    15    21     1    1
    16     1     2   ar
    17     2     3   ar
    18     3     4   ar
    19     4     5   ar
    20     5     6   ar
    21     6     7   ar
    22     7    11    1
    23    11    12   ar
    24    12    13   ar
    25    13    14   ar
    26    14    17    1
    27    17    18    1
    28    14    15   ar
    29    15    16   ar
    30    16    19    1
    31    19    20    1
    32     7     8   ar
    33     8     9   ar
    34    28    29   ar
    35    29    30    1
    36    29    23   ar
    37     9     1   ar
    38     9     4    1
    39    16    11   ar
    40    31    32    1
    41     5    10    1
@<TRIPOS>MOLECULE
*****
 38 41 0 0 0
SMALL
GASTEIGER

@<TRIPOS>ATOM
      1 C          63.9958   86.5836   15.6499 C.ar    1  UNL1        0.0611
      2 C          63.1333   86.2406   16.8282 C.ar    1  UNL1        0.1037
      3 N          62.6405   87.5229   17.4307 N.ar    1  UNL1       -0.2269
      4 C          63.1983   88.6583   16.6247 C.ar    1  UNL1        0.1407
      5 N          63.0518   90.1458   16.7508 N.ar    1  UNL1       -0.3374
      6 C          63.7429   91.0527   15.7763 C.ar    1  UNL1        0.0736
      7 C          64.5806   90.4722   14.6757 C.ar    1  UNL1        0.0231
      8 C          64.7271   88.9847   14.5496 C.ar    1  UNL1        0.0048
      9 C          64.0360   88.0778   15.5241 C.ar    1  UNL1        0.0386
     10 H          62.5020   90.5268   17.4732 H       1  UNL1        0.1674
     11 C          65.2717   91.3792   13.7011 C.ar    1  UNL1        0.0740
     12 C          64.5683   91.8091   12.4480 C.ar    1  UNL1        0.1083
     13 N          65.2595   92.7162   11.4734 N.ar    1  UNL1       -0.1925
     14 C          66.6540   93.1933   11.7521 C.ar    1  UNL1        0.3226
     15 N          67.3574   92.7633   13.0053 N.ar    1  UNL1       -0.1590
     16 C          66.6662   91.8563   13.9798 C.ar    1  UNL1        0.2302
     17 O          67.3451   94.1003   10.7776 O.3     1  UNL1       -0.4426
     18 C          67.6395   93.6219    9.3868 C.3     1  UNL1        0.2559
     19 O          67.3696   91.4264   15.2330 O.3     1  UNL1       -0.4560
     20 C          68.3727   92.3352   15.8795 C.3     1  UNL1        0.2542
     21 C          64.6953   85.6043   14.7545 C.2     1  UNL1        0.2015
     22 O          66.1823   85.4315   14.8487 O.2     1  UNL1       -0.2864
     23 C          62.5262   84.6564   11.5691 C.ar    1  UNL1        0.0920
     24 C          62.3326   83.1848   11.7856 C.ar    1  UNL1        0.0204
     25 C          62.9266   82.5197   12.9918 C.ar    1  UNL1        0.0312
     26 C          63.7141   83.3262   13.9815 C.ar    1  UNL1        0.1454
     27 F          64.3080   82.6611   15.1876 F       1  UNL1       -0.2040
     28 C          63.9077   84.7978   13.7649 C.ar    1  UNL1        0.0951
     29 C          63.3138   85.4629   12.5587 C.ar    1  UNL1        0.1598
     30 F          63.5074   86.9345   12.3422 F       1  UNL1       -0.2026
     31 N          61.9323   85.3215   10.3629 N.pl3   1  UNL1       -0.2166
     32 H          61.7245   84.7906    9.5603 H       1  UNL1        0.1734
     33 S          61.6550   86.7956   10.3796 S.O2    1  UNL1        0.0540
     34 O          60.7591   86.6135   11.5688 O.2     1  UNL1       -0.1545
     35 O          62.5508   86.9776    9.1904 O.2     1  UNL1       -0.1545
     36 C          61.3777   88.2696   10.3962 C.3     1  UNL1        0.1724
     37 C          62.3098   90.6833   10.1607 C.3     1  UNL1        0.0019
     38 C          62.5097   89.2442   10.5335 C.3     1  UNL1        0.0273
@<TRIPOS>BOND
     1    37    38    1
     2    38    36    1
     3    36    33    1
     4    33    34    2
     5    33    35    2
     6    33    31    1
     7    31    23    1
     8    23    24   ar
     9    24    25   ar
    10    25    26   ar
    11    26    27    1
    12    26    28   ar
    13    28    21    1
    14    21    22    2
    15    21     1    1
    16     1     2   ar
    17     2     3   ar
    18     3     4   ar
    19     4     5   ar
    20     5     6   ar
    21     6     7   ar
    22     7    11    1
    23    11    12   ar
    24    12    13   ar
    25    13    14   ar
    26    14    17    1
    27    17    18    1
    28    14    15   ar
    29    15    16   ar
    30    16    19    1
    31    19    20    1
    32     7     8   ar
    33     8     9   ar
    34    28    29   ar
    35    29    30    1
    36    29    23   ar
    37     9     1   ar
    38     9     4    1
    39    16    11   ar
    40    31    32    1
    41     5    10    1
@<TRIPOS>MOLECULE
*****
 38 41 0 0 0
SMALL
GASTEIGER

@<TRIPOS>ATOM
      1 C          64.1163   86.7907   15.5803 C.ar    1  UNL1        0.0611
      2 C          63.2386   86.4454   16.7468 C.ar    1  UNL1        0.1037
      3 N          62.6764   87.7222   17.2978 N.ar    1  UNL1       -0.2269
      4 C          63.2066   88.8567   16.4720 C.ar    1  UNL1        0.1407
      5 N          62.9940   90.3395   16.5494 N.ar    1  UNL1       -0.3374
      6 C          63.6712   91.2466   15.5654 C.ar    1  UNL1        0.0736
      7 C          64.5611   90.6709   14.5039 C.ar    1  UNL1        0.0231
      8 C          64.7737   89.1881   14.4265 C.ar    1  UNL1        0.0048
      9 C          64.0964   88.2810   15.4105 C.ar    1  UNL1        0.0386
     10 H          62.4099   90.7173   17.2461 H       1  UNL1        0.1674
     11 C          65.2384   91.5781   13.5198 C.ar    1  UNL1        0.0740
     12 C          64.5902   91.8693   12.1989 C.ar    1  UNL1        0.1083
     13 N          65.2675   92.7765   11.2148 N.ar    1  UNL1       -0.1925
     14 C          66.5930   93.3925   11.5518 C.ar    1  UNL1        0.3226
     15 N          67.2413   93.1012   12.8728 N.ar    1  UNL1       -0.1590
     16 C          66.5640   92.1941   13.8568 C.ar    1  UNL1        0.2302
     17 O          67.2703   94.2996   10.5678 O.3     1  UNL1       -0.4426
     18 C          66.8140   95.7209   10.4208 C.3     1  UNL1        0.2559
     19 O          67.2122   91.9028   15.1778 O.3     1  UNL1       -0.4560
     20 C          67.6639   93.0314   16.0566 C.3     1  UNL1        0.2542
     21 C          64.8797   85.8168   14.7326 C.2     1  UNL1        0.2015
     22 O          66.3691   85.7075   14.8723 O.2     1  UNL1       -0.2864
     23 C          63.4552   82.5950   12.9046 C.ar    1  UNL1        0.0920
     24 C          62.7015   83.2229   11.7699 C.ar    1  UNL1        0.0204
     25 C          62.6739   84.7154   11.6227 C.ar    1  UNL1        0.0312
     26 C          63.3999   85.5801   12.6102 C.ar    1  UNL1        0.1454
     27 F          63.3723   87.0726   12.4630 F       1  UNL1       -0.2040
     28 C          64.1536   84.9522   13.7449 C.ar    1  UNL1        0.0951
     29 C          64.1812   83.4597   13.8922 C.ar    1  UNL1        0.1598
     30 F          64.9350   82.8319   15.0270 F       1  UNL1       -0.2026
     31 N          63.4829   81.1025   13.0518 N.pl3   1  UNL1       -0.2166
     32 H          64.3052   80.6026   12.8444 H       1  UNL1        0.1734
     33 S          62.2576   80.3718   13.5152 S.O2    1  UNL1        0.0540
     34 O          62.1752   81.2699   14.7137 O.2     1  UNL1       -0.1545
     35 O          62.3400   79.4737   12.3166 O.2     1  UNL1       -0.1545
     36 C          61.0323   79.6410   13.9784 C.3     1  UNL1        0.1724
     37 C          58.5127   79.6510   14.6124 C.3     1  UNL1        0.0019
     38 C          59.7513   80.3895   14.1994 C.3     1  UNL1        0.0273
@<TRIPOS>BOND
     1    37    38    1
     2    38    36    1
     3    36    33    1
     4    33    34    2
     5    33    35    2
     6    33    31    1
     7    31    23    1
     8    23    24   ar
     9    24    25   ar
    10    25    26   ar
    11    26    27    1
    12    26    28   ar
    13    28    21    1
    14    21    22    2
    15    21     1    1
    16     1     2   ar
    17     2     3   ar
    18     3     4   ar
    19     4     5   ar
    20     5     6   ar
    21     6     7   ar
    22     7    11    1
    23    11    12   ar
    24    12    13   ar
    25    13    14   ar
    26    14    17    1
    27    17    18    1
    28    14    15   ar
    29    15    16   ar
    30    16    19    1
    31    19    20    1
    32     7     8   ar
    33     8     9   ar
    34    28    29   ar
    35    29    30    1
    36    29    23   ar
    37     9     1   ar
    38     9     4    1
    39    16    11   ar
    40    31    32    1
    41     5    10    1
@<TRIPOS>MOLECULE
*****
 38 41 0 0 0
SMALL
GASTEIGER

@<TRIPOS>ATOM
      1 C          61.5212   86.5486    9.2096 C.ar    1  UNL1        0.0611
      2 C          60.1309   86.2728    8.7189 C.ar    1  UNL1        0.1037
      3 N          59.3107   87.5108    8.9305 N.ar    1  UNL1       -0.2269
      4 C          60.1941   88.5516    9.5520 C.ar    1  UNL1        0.1407
      5 N          59.9310   89.9639    9.9832 N.ar    1  UNL1       -0.3374
      6 C          61.0341   90.7816   10.5869 C.ar    1  UNL1        0.0736
      7 C          62.4003   90.1870   10.7594 C.ar    1  UNL1        0.0231
      8 C          62.6635   88.7746   10.3282 C.ar    1  UNL1        0.0048
      9 C          61.5603   87.9569    9.7246 C.ar    1  UNL1        0.0386
     10 H          59.0343   90.3542    9.8700 H       1  UNL1        0.1674
     11 C          63.5035   91.0047   11.3631 C.ar    1  UNL1        0.0740
     12 C          64.3293   91.9073   10.4951 C.ar    1  UNL1        0.1083
     13 N          65.4324   92.7251   11.0988 N.ar    1  UNL1       -0.1925
     14 C          65.7097   92.6402   12.5705 C.ar    1  UNL1        0.3226
     15 N          64.8839   91.7376   13.4385 N.ar    1  UNL1       -0.1590
     16 C          63.7808   90.9199   12.8348 C.ar    1  UNL1        0.2302
     17 O          66.8128   93.4580   13.1742 O.3     1  UNL1       -0.4426
     18 C          66.9736   93.5166   14.6643 C.3     1  UNL1        0.2559
     19 O          62.9549   90.0173   13.7028 O.3     1  UNL1       -0.4560
     20 C          63.2738   89.8827   15.1623 C.3     1  UNL1        0.2542
     21 C          62.6708   85.5851    9.1891 C.2     1  UNL1        0.2015
     22 O          63.5216   85.4587    7.9603 O.2     1  UNL1       -0.2864
     23 C          62.6255   84.2369   12.9215 C.ar    1  UNL1        0.0920
     24 C          63.5669   83.0740   12.8142 C.ar    1  UNL1        0.0204
     25 C          64.2095   82.7481   11.4986 C.ar    1  UNL1        0.0312
     26 C          63.9108   83.5851   10.2902 C.ar    1  UNL1        0.1454
     27 F          64.5534   83.2593    8.9746 F       1  UNL1       -0.2040
     28 C          62.9695   84.7480   10.3975 C.ar    1  UNL1        0.0951
     29 C          62.3269   85.0739   11.7131 C.ar    1  UNL1        0.1598
     30 F          61.3855   86.2369   11.8203 F       1  UNL1       -0.2026
     31 N          61.9829   84.5628   14.2371 N.pl3   1  UNL1       -0.2166
     32 H          61.0268   84.3750   14.3778 H       1  UNL1        0.1734
     33 S          62.7970   85.1747   15.3383 S.O2    1  UNL1        0.0540
     34 O          62.1489   84.2539   16.3292 O.2     1  UNL1       -0.1545
     35 O          63.4452   86.0955   14.3473 O.2     1  UNL1       -0.1545
     36 C          63.6112   85.7867   16.4394 C.3     1  UNL1        0.1724
     37 C          62.7009   86.8023   18.6507 C.3     1  UNL1        0.0019
     38 C          63.0746   86.9587   17.2065 C.3     1  UNL1        0.0273
@<TRIPOS>BOND
     1    37    38    1
     2    38    36    1
     3    36    33    1
     4    33    34    2
     5    33    35    2
     6    33    31    1
     7    31    23    1
     8    23    24   ar
     9    24    25   ar
    10    25    26   ar
    11    26    27    1
    12    26    28   ar
    13    28    21    1
    14    21    22    2
    15    21     1    1
    16     1     2   ar
    17     2     3   ar
    18     3     4   ar
    19     4     5   ar
    20     5     6   ar
    21     6     7   ar
    22     7    11    1
    23    11    12   ar
    24    12    13   ar
    25    13    14   ar
    26    14    17    1
    27    17    18    1
    28    14    15   ar
    29    15    16   ar
    30    16    19    1
    31    19    20    1
    32     7     8   ar
    33     8     9   ar
    34    28    29   ar
    35    29    30    1
    36    29    23   ar
    37     9     1   ar
    38     9     4    1
    39    16    11   ar
    40    31    32    1
    41     5    10    1
@<TRIPOS>MOLECULE
*****
 38 41 0 0 0
SMALL
GASTEIGER

@<TRIPOS>ATOM
      1 C          61.9563   86.3749   10.7581 C.ar    1  UNL1        0.0611
      2 C          60.7255   86.1579    9.9288 C.ar    1  UNL1        0.1037
      3 N          60.0317   87.4789    9.7747 N.ar    1  UNL1       -0.2269
      4 C          60.8337   88.5122   10.5089 C.ar    1  UNL1        0.1407
      5 N          60.6346   89.9862   10.7024 N.ar    1  UNL1       -0.3374
      6 C          61.6250   90.7779   11.5038 C.ar    1  UNL1        0.0736
      7 C          62.8145   90.0956   12.1116 C.ar    1  UNL1        0.0231
      8 C          63.0137   88.6216   11.9180 C.ar    1  UNL1        0.0048
      9 C          62.0233   87.8299   11.1166 C.ar    1  UNL1        0.0386
     10 H          59.8538   90.4341   10.3035 H       1  UNL1        0.1674
     11 C          63.8050   90.8874   12.9130 C.ar    1  UNL1        0.0740
     12 C          64.8052   91.7619   12.2167 C.ar    1  UNL1        0.1083
     13 N          65.7956   92.5537   13.0181 N.ar    1  UNL1       -0.1925
     14 C          65.7858   92.4710   14.5158 C.ar    1  UNL1        0.3226
     15 N          64.7855   91.5965   15.2121 N.ar    1  UNL1       -0.1590
     16 C          63.7951   90.8047   14.4107 C.ar    1  UNL1        0.2302
     17 O          66.7761   93.2627   15.3172 O.3     1  UNL1       -0.4426
     18 C          68.2468   93.0420   15.1215 C.3     1  UNL1        0.2559
     19 O          62.7948   89.9302   15.1070 O.3     1  UNL1       -0.4560
     20 C          63.1996   89.1472   16.3207 C.3     1  UNL1        0.2542
     21 C          62.9465   85.3217   11.1587 C.2     1  UNL1        0.2015
     22 O          63.8450   84.7060   10.1275 O.2     1  UNL1       -0.2864
     23 C          62.6327   83.0901   14.4255 C.ar    1  UNL1        0.0920
     24 C          63.2215   84.0093   15.4543 C.ar    1  UNL1        0.0204
     25 C          63.7185   85.3660   15.0513 C.ar    1  UNL1        0.0312
     26 C          63.6269   85.8035   13.6194 C.ar    1  UNL1        0.1454
     27 F          64.1240   87.1601   13.2164 F       1  UNL1       -0.2040
     28 C          63.0382   84.8843   12.5906 C.ar    1  UNL1        0.0951
     29 C          62.5411   83.5276   12.9936 C.ar    1  UNL1        0.1598
     30 F          61.9524   82.6085   11.9647 F       1  UNL1       -0.2026
     31 N          62.1357   81.7335   14.8285 N.pl3   1  UNL1       -0.2166
     32 H          61.7271   81.6021   15.7145 H       1  UNL1        0.1734
     33 S          62.2610   80.5770   13.8815 S.O2    1  UNL1        0.0540
     34 O          63.7558   80.6795   13.9542 O.2     1  UNL1       -0.1545
     35 O          60.7663   80.4744   13.8088 O.2     1  UNL1       -0.1545
     36 C          62.3863   79.4205   12.9346 C.3     1  UNL1        0.1724
     37 C          62.7190   78.5363   10.5143 C.3     1  UNL1        0.0019
     38 C          62.7789   79.6594   11.5067 C.3     1  UNL1        0.0273
@<TRIPOS>BOND
     1    37    38    1
     2    38    36    1
     3    36    33    1
     4    33    34    2
     5    33    35    2
     6    33    31    1
     7    31    23    1
     8    23    24   ar
     9    24    25   ar
    10    25    26   ar
    11    26    27    1
    12    26    28   ar
    13    28    21    1
    14    21    22    2
    15    21     1    1
    16     1     2   ar
    17     2     3   ar
    18     3     4   ar
    19     4     5   ar
    20     5     6   ar
    21     6     7   ar
    22     7    11    1
    23    11    12   ar
    24    12    13   ar
    25    13    14   ar
    26    14    17    1
    27    17    18    1
    28    14    15   ar
    29    15    16   ar
    30    16    19    1
    31    19    20    1
    32     7     8   ar
    33     8     9   ar
    34    28    29   ar
    35    29    30    1
    36    29    23   ar
    37     9     1   ar
    38     9     4    1
    39    16    11   ar
    40    31    32    1
    41     5    10    1
@<TRIPOS>MOLECULE
*****
 38 41 0 0 0
SMALL
GASTEIGER

@<TRIPOS>ATOM
      1 C          64.1691   89.0633   14.1090 C.ar    1  UNL1        0.0611
      2 C          64.8085   88.1196   15.0841 C.ar    1  UNL1        0.1037
      3 N          64.4781   86.7196   14.6587 N.ar    1  UNL1       -0.2269
      4 C          63.6345   86.7980   13.4209 C.ar    1  UNL1        0.1407
      5 N          63.0156   85.7377   12.5592 N.ar    1  UNL1       -0.3374
      6 C          62.2058   86.1258   11.3578 C.ar    1  UNL1        0.0736
      7 C          62.0148   87.5743   11.0180 C.ar    1  UNL1        0.0231
      8 C          62.6337   88.6347   11.8797 C.ar    1  UNL1        0.0048
      9 C          63.4436   88.2465   13.0811 C.ar    1  UNL1        0.0386
     10 H          63.1410   84.7870   12.7822 H       1  UNL1        0.1674
     11 C          61.2049   87.9624    9.8165 C.ar    1  UNL1        0.0740
     12 C          61.0779   87.0157    8.6600 C.ar    1  UNL1        0.1083
     13 N          60.2680   87.4038    7.4585 N.ar    1  UNL1       -0.1925
     14 C          59.5852   88.7386    7.4136 C.ar    1  UNL1        0.3226
     15 N          59.7122   89.6853    8.5702 N.ar    1  UNL1       -0.1590
     16 C          60.5221   89.2972    9.7717 C.ar    1  UNL1        0.2302
     17 O          58.7753   89.1267    6.2122 O.3     1  UNL1       -0.4426
     18 C          58.8931   90.5095    5.6432 C.3     1  UNL1        0.2559
     19 O          60.6491   90.2439   10.9283 O.3     1  UNL1       -0.4560
     20 C          59.4233   90.6986   11.6634 C.3     1  UNL1        0.2542
     21 C          64.2424   90.5608   14.1540 C.2     1  UNL1        0.2015
     22 O          63.2196   91.3389   14.9274 O.2     1  UNL1       -0.2864
     23 C          66.1454   92.6859   11.3948 C.ar    1  UNL1        0.0920
     24 C          67.5310   92.7192   11.9684 C.ar    1  UNL1        0.0204
     25 C          67.8204   92.0330   13.2704 C.ar    1  UNL1        0.0312
     26 C          66.7243   91.3135   13.9990 C.ar    1  UNL1        0.1454
     27 F          67.0137   90.6274   15.3010 F       1  UNL1       -0.2040
     28 C          65.3387   91.2803   13.4254 C.ar    1  UNL1        0.0951
     29 C          65.0492   91.9665   12.1234 C.ar    1  UNL1        0.1598
     30 F          63.6636   91.9332   11.5499 F       1  UNL1       -0.2026
     31 N          65.8559   93.3721   10.0927 N.pl3   1  UNL1       -0.2166
     32 H          65.2007   92.9858    9.4677 H       1  UNL1        0.1734
     33 S          66.5649   94.6468    9.7430 S.O2    1  UNL1        0.0540
     34 O          67.4960   93.8835    8.8483 O.2     1  UNL1       -0.1545
     35 O          65.6338   95.4102   10.6376 O.2     1  UNL1       -0.1545
     36 C          67.2738   95.9216    9.3932 C.3     1  UNL1        0.1724
     37 C          65.7263   96.6592    7.4409 C.3     1  UNL1        0.0019
     38 C          67.0984   96.5284    8.0327 C.3     1  UNL1        0.0273
@<TRIPOS>BOND
     1    37    38    1
     2    38    36    1
     3    36    33    1
     4    33    34    2
     5    33    35    2
     6    33    31    1
     7    31    23    1
     8    23    24   ar
     9    24    25   ar
    10    25    26   ar
    11    26    27    1
    12    26    28   ar
    13    28    21    1
    14    21    22    2
    15    21     1    1
    16     1     2   ar
    17     2     3   ar
    18     3     4   ar
    19     4     5   ar
    20     5     6   ar
    21     6     7   ar
    22     7    11    1
    23    11    12   ar
    24    12    13   ar
    25    13    14   ar
    26    14    17    1
    27    17    18    1
    28    14    15   ar
    29    15    16   ar
    30    16    19    1
    31    19    20    1
    32     7     8   ar
    33     8     9   ar
    34    28    29   ar
    35    29    30    1
    36    29    23   ar
    37     9     1   ar
    38     9     4    1
    39    16    11   ar
    40    31    32    1
    41     5    10    1
@<TRIPOS>MOLECULE
*****
 38 41 0 0 0
SMALL
GASTEIGER

@<TRIPOS>ATOM
      1 C          64.0033   86.7160   15.6298 C.ar    1  UNL1        0.0611
      2 C          63.1352   86.3552   16.7987 C.ar    1  UNL1        0.1037
      3 N          62.6315   87.6280   17.4122 N.ar    1  UNL1       -0.2269
      4 C          63.1884   88.7753   16.6225 C.ar    1  UNL1        0.1407
      5 N          63.0329   90.2605   16.7643 N.ar    1  UNL1       -0.3374
      6 C          63.7253   91.1820   15.8044 C.ar    1  UNL1        0.0736
      7 C          64.5731   90.6183   14.7028 C.ar    1  UNL1        0.0231
      8 C          64.7285   89.1332   14.5610 C.ar    1  UNL1        0.0048
      9 C          64.0361   88.2117   15.5209 C.ar    1  UNL1        0.0386
     10 H          62.4765   90.6304   17.4873 H       1  UNL1        0.1674
     11 C          65.2655   91.5399   13.7428 C.ar    1  UNL1        0.0740
     12 C          66.6120   92.1054   14.0850 C.ar    1  UNL1        0.1083
     13 N          67.3044   93.0270   13.1251 N.ar    1  UNL1       -0.1925
     14 C          66.6502   93.3830   11.8230 C.ar    1  UNL1        0.3226
     15 N          65.3036   92.8174   11.4809 N.ar    1  UNL1       -0.1590
     16 C          64.6113   91.8959   12.4408 C.ar    1  UNL1        0.2302
     17 O          67.3425   94.3045   10.8631 O.3     1  UNL1       -0.4426
     18 C          66.5840   94.8964    9.7124 C.3     1  UNL1        0.2559
     19 O          63.2648   91.3303   12.0987 O.3     1  UNL1       -0.4560
     20 C          63.1525   90.2038   11.1146 C.3     1  UNL1        0.2542
     21 C          64.7138   85.7505   14.7280 C.2     1  UNL1        0.2015
     22 O          66.1886   85.5257   14.8832 O.2     1  UNL1       -0.2864
     23 C          63.1175   82.7712   12.6482 C.ar    1  UNL1        0.0920
     24 C          62.4205   83.5287   11.5571 C.ar    1  UNL1        0.0204
     25 C          62.4879   85.0268   11.5230 C.ar    1  UNL1        0.0312
     26 C          63.2523   85.7674   12.5799 C.ar    1  UNL1        0.1454
     27 F          63.3198   87.2655   12.5458 F       1  UNL1       -0.2040
     28 C          63.9493   85.0099   13.6710 C.ar    1  UNL1        0.0951
     29 C          63.8818   83.5118   13.7051 C.ar    1  UNL1        0.1598
     30 F          64.5789   82.7544   14.7963 F       1  UNL1       -0.2026
     31 N          63.0500   81.2731   12.6823 N.pl3   1  UNL1       -0.2166
     32 H          62.9870   80.8027   13.5449 H       1  UNL1        0.1734
     33 S          63.0786   80.4917   11.4022 S.O2    1  UNL1        0.0540
     34 O          62.3181   79.3807   12.0635 O.2     1  UNL1       -0.1545
     35 O          63.8390   81.6028   10.7410 O.2     1  UNL1       -0.1545
     36 C          63.1072   79.7104   10.1221 C.3     1  UNL1        0.1724
     37 C          63.4464   77.1346   10.1387 C.3     1  UNL1        0.0019
     38 C          62.5353   78.3245   10.0764 C.3     1  UNL1        0.0273
@<TRIPOS>BOND
     1    37    38    1
     2    38    36    1
     3    36    33    1
     4    33    34    2
     5    33    35    2
     6    33    31    1
     7    31    23    1
     8    23    24   ar
     9    24    25   ar
    10    25    26   ar
    11    26    27    1
    12    26    28   ar
    13    28    21    1
    14    21    22    2
    15    21     1    1
    16     1     2   ar
    17     2     3   ar
    18     3     4   ar
    19     4     5   ar
    20     5     6   ar
    21     6     7   ar
    22     7    11    1
    23    11    12   ar
    24    12    13   ar
    25    13    14   ar
    26    14    17    1
    27    17    18    1
    28    14    15   ar
    29    15    16   ar
    30    16    19    1
    31    19    20    1
    32     7     8   ar
    33     8     9   ar
    34    28    29   ar
    35    29    30    1
    36    29    23   ar
    37     9     1   ar
    38     9     4    1
    39    16    11   ar
    40    31    32    1
    41     5    10    1
@<TRIPOS>MOLECULE
*****
 38 41 0 0 0
SMALL
GASTEIGER

@<TRIPOS>ATOM
      1 C          63.8188   86.5411   15.9888 C.ar    1  UNL1        0.0611
      2 C          62.9392   86.3185   17.1832 C.ar    1  UNL1        0.1037
      3 N          62.4644   87.6572   17.6651 N.ar    1  UNL1       -0.2269
      4 C          63.0505   88.7073   16.7685 C.ar    1  UNL1        0.1407
      5 N          62.9301   90.2024   16.7617 N.ar    1  UNL1       -0.3374
      6 C          63.6468   91.0077   15.7188 C.ar    1  UNL1        0.0736
      7 C          64.4839   90.3179   14.6827 C.ar    1  UNL1        0.0231
      8 C          64.6043   88.8228   14.6895 C.ar    1  UNL1        0.0048
      9 C          63.8876   88.0175   15.7325 C.ar    1  UNL1        0.0386
     10 H          62.3807   90.6551   17.4417 H       1  UNL1        0.1674
     11 C          65.2006   91.1233   13.6397 C.ar    1  UNL1        0.0740
     12 C          66.5641   91.6787   13.9269 C.ar    1  UNL1        0.1083
     13 N          67.2808   92.4841   12.8839 N.ar    1  UNL1       -0.1925
     14 C          66.6340   92.7341   11.5538 C.ar    1  UNL1        0.3226
     15 N          65.2704   92.1787   11.2667 N.ar    1  UNL1       -0.1590
     16 C          64.5538   91.3733   12.3096 C.ar    1  UNL1        0.2302
     17 O          67.3506   93.5394   10.5109 O.3     1  UNL1       -0.4426
     18 C          68.1890   92.8498    9.4758 C.3     1  UNL1        0.2559
     19 O          63.1902   90.8179   12.0225 O.3     1  UNL1       -0.4560
     20 C          62.6029   90.9447   10.6481 C.3     1  UNL1        0.2542
     21 C          64.5085   85.4747   15.1907 C.2     1  UNL1        0.2015
     22 O          65.9857   85.5594   14.9444 O.2     1  UNL1       -0.2864
     23 C          63.1706   82.7069   12.6807 C.ar    1  UNL1        0.0920
     24 C          62.1461   82.0210   13.5351 C.ar    1  UNL1        0.0204
     25 C          61.9091   82.4862   14.9413 C.ar    1  UNL1        0.0312
     26 C          62.6965   83.6374   15.4932 C.ar    1  UNL1        0.1454
     27 F          62.4596   84.1027   16.8994 F       1  UNL1       -0.2040
     28 C          63.7210   84.3234   14.6388 C.ar    1  UNL1        0.0951
     29 C          63.9580   83.8581   13.2326 C.ar    1  UNL1        0.1598
     30 F          64.9825   84.5442   12.3783 F       1  UNL1       -0.2026
     31 N          63.4076   82.2417   11.2746 N.pl3   1  UNL1       -0.2166
     32 H          63.4835   81.2795   11.0806 H       1  UNL1        0.1734
     33 S          63.5289   83.2425   10.1639 S.O2    1  UNL1        0.0540
     34 O          62.2609   83.9017   10.6194 O.2     1  UNL1       -0.1545
     35 O          64.7969   82.5832    9.7084 O.2     1  UNL1       -0.1545
     36 C          63.6503   84.2432    9.0532 C.3     1  UNL1        0.1724
     37 C          61.8526   85.7690    7.9622 C.3     1  UNL1        0.0019
     38 C          62.8197   85.4921    9.0748 C.3     1  UNL1        0.0273
@<TRIPOS>BOND
     1    37    38    1
     2    38    36    1
     3    36    33    1
     4    33    34    2
     5    33    35    2
     6    33    31    1
     7    31    23    1
     8    23    24   ar
     9    24    25   ar
    10    25    26   ar
    11    26    27    1
    12    26    28   ar
    13    28    21    1
    14    21    22    2
    15    21     1    1
    16     1     2   ar
    17     2     3   ar
    18     3     4   ar
    19     4     5   ar
    20     5     6   ar
    21     6     7   ar
    22     7    11    1
    23    11    12   ar
    24    12    13   ar
    25    13    14   ar
    26    14    17    1
    27    17    18    1
    28    14    15   ar
    29    15    16   ar
    30    16    19    1
    31    19    20    1
    32     7     8   ar
    33     8     9   ar
    34    28    29   ar
    35    29    30    1
    36    29    23   ar
    37     9     1   ar
    38     9     4    1
    39    16    11   ar
    40    31    32    1
    41     5    10    1
