@<TRIPOS>MOLECULE
*****
 29 32 0 0 0
SMALL
GASTEIGER

@<TRIPOS>ATOM
      1 C          64.0616   91.2593   13.2917 C.3     1  UNL1        0.0518
      2 C          63.8183   89.7854   13.1557 C.ar    1  UNL1        0.0563
      3 N          64.3316   88.8409   14.2019 N.ar    1  UNL1       -0.2524
      4 C          64.0883   87.3671   14.0660 C.ar    1  UNL1        0.0830
      5 C          63.3318   86.8376   12.8838 C.ar    1  UNL1        0.0686
      6 C          62.8186   87.7821   11.8376 C.ar    1  UNL1        0.0048
      7 C          63.0618   89.2560   11.9736 C.ar    1  UNL1        0.0072
      8 C          63.2463   85.3461   13.0183 C.2     1  UNL1        0.2506
      9 O          62.5750   84.4112   12.0564 O.2     1  UNL1       -0.2699
     10 N          63.9500   84.9538   14.2836 N.am    1  UNL1       -0.2679
     11 C          64.4704   86.2028   14.9311 C.3     1  UNL1        0.1398
     12 C          62.0621   87.2527   10.6554 C.ar    1  UNL1        0.0106
     13 C          62.7932   86.5470    9.5520 C.ar    1  UNL1        0.0017
     14 C          62.0367   86.0177    8.3698 C.ar    1  UNL1        0.0114
     15 C          60.5493   86.1940    8.2911 C.ar    1  UNL1        0.0585
     16 CL         59.7928   85.6646    7.1089 Cl      1  UNL1       -0.0822
     17 C          59.8182   86.8996    9.3945 C.ar    1  UNL1        0.0228
     18 C          60.5746   87.4290   10.5767 C.ar    1  UNL1        0.0585
     19 CL         59.8435   88.1347   11.6802 Cl      1  UNL1       -0.0822
     20 C          62.5486   90.2005   10.9274 C.3     1  UNL1        0.0934
     21 N          61.2884   90.9768   11.1710 N.3     1  UNL1       -0.3174
     22 H          60.4980   90.3342   11.2234 H       1  UNL1        0.1192
     23 H          61.1412   91.6351   10.4059 H       1  UNL1        0.1192
     24 C          64.1059   83.5575   14.8092 C.3     1  UNL1        0.1235
     25 C          63.2222   82.4597   14.2954 C.3     1  UNL1        0.1351
     26 C          63.6306   81.3685   13.3507 C.3     1  UNL1        0.0339
     27 C          62.4359   80.4948   13.1076 C.3     1  UNL1        0.0346
     28 C          61.2890   81.0459   13.9020 C.3     1  UNL1        0.1422
     29 O          61.7751   82.2604   14.6361 O.3     1  UNL1       -0.3545
@<TRIPOS>BOND
     1     1     2    1
     2     2     3   ar
     3     3     4   ar
     4     4     5   ar
     5     5     6   ar
     6     6    12    1
     7    12    13   ar
     8    13    14   ar
     9    14    15   ar
    10    15    16    1
    11    15    17   ar
    12    17    18   ar
    13    18    19    1
    14     6     7   ar
    15     7    20    1
    16    20    21    1
    17     5     8    1
    18     8     9    2
    19     8    10   am
    20    10    24    1
    21    25    24    1
    22    25    26    1
    23    26    27    1
    24    27    28    1
    25    28    29    1
    26    10    11    1
    27     7     2   ar
    28    29    25    1
    29    11     4    1
    30    18    12   ar
    31    21    22    1
    32    21    23    1
@<TRIPOS>MOLECULE
*****
 29 32 0 0 0
SMALL
GASTEIGER

@<TRIPOS>ATOM
      1 C          58.9810   88.2942    7.2252 C.3     1  UNL1        0.0518
      2 C          59.9555   88.3147    8.3655 C.ar    1  UNL1        0.0563
      3 N          60.3072   89.6137    9.0281 N.ar    1  UNL1       -0.2524
      4 C          61.2816   89.6343   10.1683 C.ar    1  UNL1        0.0830
      5 C          61.9043   88.3560   10.6459 C.ar    1  UNL1        0.0686
      6 C          61.5526   87.0570    9.9833 C.ar    1  UNL1        0.0048
      7 C          60.5781   87.0365    8.8431 C.ar    1  UNL1        0.0072
      8 C          62.8249   88.6855   11.7834 C.2     1  UNL1        0.2506
      9 O          63.6537   87.7051   12.5593 O.2     1  UNL1       -0.2699
     10 N          62.7711   90.1675   12.0088 N.am    1  UNL1       -0.2679
     11 C          61.8173   90.7539   11.0106 C.3     1  UNL1        0.1398
     12 C          62.1752   85.7786   10.4609 C.ar    1  UNL1        0.0106
     13 C          61.8534   85.2528   11.8284 C.ar    1  UNL1        0.0017
     14 C          62.4760   83.9744   12.3060 C.ar    1  UNL1        0.0114
     15 C          63.4204   83.2220   11.4162 C.ar    1  UNL1        0.0585
     16 CL         64.0430   81.9436   11.8939 Cl      1  UNL1       -0.0822
     17 C          63.7423   83.7478   10.0488 C.ar    1  UNL1        0.0228
     18 C          63.1197   85.0262    9.5711 C.ar    1  UNL1        0.0585
     19 CL         63.4415   85.5520    8.2037 Cl      1  UNL1       -0.0822
     20 C          60.2264   85.7375    8.1804 C.3     1  UNL1        0.0934
     21 N          60.7344   85.4373    6.8014 N.3     1  UNL1       -0.3174
     22 H          60.3158   86.0872    6.1359 H       1  UNL1        0.1192
     23 H          60.4836   84.4819    6.5472 H       1  UNL1        0.1192
     24 C          63.5367   90.9293   13.0497 C.3     1  UNL1        0.1235
     25 C          64.6033   91.8995   12.6359 C.3     1  UNL1        0.1351
     26 C          64.9951   92.2307   11.2263 C.3     1  UNL1        0.0339
     27 C          66.0991   93.2447   11.2782 C.3     1  UNL1        0.0346
     28 C          66.3898   93.5403   12.7198 C.3     1  UNL1        0.1422
     29 O          65.4652   92.7089   13.5589 O.3     1  UNL1       -0.3545
@<TRIPOS>BOND
     1     1     2    1
     2     2     3   ar
     3     3     4   ar
     4     4     5   ar
     5     5     6   ar
     6     6    12    1
     7    12    13   ar
     8    13    14   ar
     9    14    15   ar
    10    15    16    1
    11    15    17   ar
    12    17    18   ar
    13    18    19    1
    14     6     7   ar
    15     7    20    1
    16    20    21    1
    17     5     8    1
    18     8     9    2
    19     8    10   am
    20    10    24    1
    21    25    24    1
    22    25    26    1
    23    26    27    1
    24    27    28    1
    25    28    29    1
    26    10    11    1
    27     7     2   ar
    28    29    25    1
    29    11     4    1
    30    18    12   ar
    31    21    22    1
    32    21    23    1
@<TRIPOS>MOLECULE
*****
 29 32 0 0 0
SMALL
GASTEIGER

@<TRIPOS>ATOM
      1 C          60.8753   89.3181    9.1979 C.3     1  UNL1        0.0518
      2 C          61.6557   88.7359   10.3390 C.ar    1  UNL1        0.0563
      3 N          61.6964   87.2498   10.5388 N.ar    1  UNL1       -0.2524
      4 C          62.4768   86.6675   11.6798 C.ar    1  UNL1        0.0830
      5 C          63.2165   87.5713   12.6211 C.ar    1  UNL1        0.0686
      6 C          63.1758   89.0574   12.4214 C.ar    1  UNL1        0.0048
      7 C          62.3953   89.6396   11.2803 C.ar    1  UNL1        0.0072
      8 C          63.8959   86.7150   13.6482 C.2     1  UNL1        0.2506
      9 O          64.7459   87.2055   14.7826 O.2     1  UNL1       -0.2699
     10 N          63.5762   85.2819   13.3417 N.am    1  UNL1       -0.2679
     11 C          62.6991   85.2525   12.1251 C.3     1  UNL1        0.1398
     12 C          63.9154   89.9613   13.3626 C.ar    1  UNL1        0.0106
     13 C          65.1518   90.6744   12.9014 C.ar    1  UNL1        0.0017
     14 C          65.8915   91.5783   13.8426 C.ar    1  UNL1        0.0114
     15 C          65.3947   91.7691   15.2450 C.ar    1  UNL1        0.0585
     16 CL         66.1344   92.6730   16.1861 Cl      1  UNL1       -0.0822
     17 C          64.1583   91.0560   15.7062 C.ar    1  UNL1        0.0228
     18 C          63.4186   90.1521   14.7650 C.ar    1  UNL1        0.0585
     19 CL         62.1822   89.4390   15.2263 Cl      1  UNL1       -0.0822
     20 C          62.3546   91.1258   11.0805 C.3     1  UNL1        0.0934
     21 N          63.1638   91.7581    9.9871 N.3     1  UNL1       -0.3174
     22 H          64.1569   91.6399   10.1874 H       1  UNL1        0.1192
     23 H          62.9438   92.7526    9.9330 H       1  UNL1        0.1192
     24 C          64.0503   84.0877   14.1157 C.3     1  UNL1        0.1235
     25 C          63.3089   82.7874   14.0172 C.3     1  UNL1        0.1351
     26 C          63.7950   81.5453   13.3310 C.3     1  UNL1        0.0339
     27 C          62.7379   80.4912   13.4772 C.3     1  UNL1        0.0346
     28 C          61.5985   81.0818   14.2537 C.3     1  UNL1        0.1422
     29 O          61.9514   82.5010   14.5874 O.3     1  UNL1       -0.3545
@<TRIPOS>BOND
     1     1     2    1
     2     2     3   ar
     3     3     4   ar
     4     4     5   ar
     5     5     6   ar
     6     6    12    1
     7    12    13   ar
     8    13    14   ar
     9    14    15   ar
    10    15    16    1
    11    15    17   ar
    12    17    18   ar
    13    18    19    1
    14     6     7   ar
    15     7    20    1
    16    20    21    1
    17     5     8    1
    18     8     9    2
    19     8    10   am
    20    10    24    1
    21    25    24    1
    22    25    26    1
    23    26    27    1
    24    27    28    1
    25    28    29    1
    26    10    11    1
    27     7     2   ar
    28    29    25    1
    29    11     4    1
    30    18    12   ar
    31    21    22    1
    32    21    23    1
@<TRIPOS>MOLECULE
*****
 29 32 0 0 0
SMALL
GASTEIGER

@<TRIPOS>ATOM
      1 C          63.8528   83.7455   14.9648 C.3     1  UNL1        0.0518
      2 C          63.6944   85.0464   14.2348 C.ar    1  UNL1        0.0563
      3 N          64.2605   86.3072   14.8177 N.ar    1  UNL1       -0.2524
      4 C          64.1021   87.6080   14.0878 C.ar    1  UNL1        0.0830
      5 C          63.3777   87.6481   12.7750 C.ar    1  UNL1        0.0686
      6 C          62.8116   86.3872   12.1920 C.ar    1  UNL1        0.0048
      7 C          62.9700   85.0864   12.9220 C.ar    1  UNL1        0.0072
      8 C          63.3777   89.0670   12.2886 C.2     1  UNL1        0.2506
      9 O          62.7615   89.5620   11.0137 O.2     1  UNL1       -0.2699
     10 N          64.1022   89.9039   13.3008 N.am    1  UNL1       -0.2679
     11 C          64.5499   89.0023   14.4128 C.3     1  UNL1        0.1398
     12 C          62.0872   86.4272   10.8791 C.ar    1  UNL1        0.0106
     13 C          62.6905   85.7768    9.6696 C.ar    1  UNL1        0.0017
     14 C          61.9661   85.8167    8.3567 C.ar    1  UNL1        0.0114
     15 C          60.6384   86.5069    8.2534 C.ar    1  UNL1        0.0585
     16 CL         59.9140   86.5468    6.9405 Cl      1  UNL1       -0.0822
     17 C          60.0351   87.1573    9.4630 C.ar    1  UNL1        0.0228
     18 C          60.7594   87.1174   10.7759 C.ar    1  UNL1        0.0585
     19 CL         60.1561   87.7677   11.9854 Cl      1  UNL1       -0.0822
     20 C          62.4039   83.8255   12.3390 C.3     1  UNL1        0.0934
     21 N          63.2928   82.8846   11.5810 N.3     1  UNL1       -0.3174
     22 H          63.6169   83.3373   10.7264 H       1  UNL1        0.1192
     23 H          62.7705   82.0416   11.3422 H       1  UNL1        0.1192
     24 C          64.3376   91.3829   13.2160 C.3     1  UNL1        0.1235
     25 C          65.5199   91.9950   13.9069 C.3     1  UNL1        0.1351
     26 C          66.9320   91.9992   13.4009 C.3     1  UNL1        0.0339
     27 C          67.7825   92.7171   14.4064 C.3     1  UNL1        0.0346
     28 C          66.8963   93.1567   15.5339 C.3     1  UNL1        0.1422
     29 O          65.4978   92.7104   15.2252 O.3     1  UNL1       -0.3545
@<TRIPOS>BOND
     1     1     2    1
     2     2     3   ar
     3     3     4   ar
     4     4     5   ar
     5     5     6   ar
     6     6    12    1
     7    12    13   ar
     8    13    14   ar
     9    14    15   ar
    10    15    16    1
    11    15    17   ar
    12    17    18   ar
    13    18    19    1
    14     6     7   ar
    15     7    20    1
    16    20    21    1
    17     5     8    1
    18     8     9    2
    19     8    10   am
    20    10    24    1
    21    25    24    1
    22    25    26    1
    23    26    27    1
    24    27    28    1
    25    28    29    1
    26    10    11    1
    27     7     2   ar
    28    29    25    1
    29    11     4    1
    30    18    12   ar
    31    21    22    1
    32    21    23    1
@<TRIPOS>MOLECULE
*****
 29 32 0 0 0
SMALL
GASTEIGER

@<TRIPOS>ATOM
      1 C          64.0491   83.4550   14.4908 C.3     1  UNL1        0.0518
      2 C          63.7827   84.8052   13.8939 C.ar    1  UNL1        0.0563
      3 N          64.3545   86.0347   14.5353 N.ar    1  UNL1       -0.2524
      4 C          64.0882   87.3849   13.9385 C.ar    1  UNL1        0.0830
      5 C          63.2501   87.5055   12.7003 C.ar    1  UNL1        0.0686
      6 C          62.6784   86.2760   12.0589 C.ar    1  UNL1        0.0048
      7 C          62.9447   84.9258   12.6558 C.ar    1  UNL1        0.0072
      8 C          63.1588   88.9592   12.3421 C.2     1  UNL1        0.2506
      9 O          62.4163   89.5341   11.1724 O.2     1  UNL1       -0.2699
     10 N          63.9405   89.7370   13.3589 N.am    1  UNL1       -0.2679
     11 C          64.5149   88.7641   14.3455 C.3     1  UNL1        0.1398
     12 C          61.8403   86.3965   10.8207 C.ar    1  UNL1        0.0106
     13 C          60.5252   87.1161   10.8723 C.ar    1  UNL1        0.0017
     14 C          59.6871   87.2366    9.6342 C.ar    1  UNL1        0.0114
     15 C          60.1641   86.6376    8.3444 C.ar    1  UNL1        0.0585
     16 CL         59.3260   86.7581    7.1063 Cl      1  UNL1       -0.0822
     17 C          61.4792   85.9180    8.2928 C.ar    1  UNL1        0.0228
     18 C          62.3174   85.7974    9.5309 C.ar    1  UNL1        0.0585
     19 CL         63.6325   85.0778    9.4793 Cl      1  UNL1       -0.0822
     20 C          62.3730   83.6962   12.0144 C.3     1  UNL1        0.0934
     21 N          63.2880   82.6355   11.4781 N.3     1  UNL1       -0.3174
     22 H          63.8165   83.0092   10.6898 H       1  UNL1        0.1192
     23 H          62.7364   81.8352   11.1688 H       1  UNL1        0.1192
     24 C          64.1168   91.2264   13.3846 C.3     1  UNL1        0.1235
     25 C          65.0372   91.8898   12.4033 C.3     1  UNL1        0.1351
     26 C          64.7049   92.2455   10.9845 C.3     1  UNL1        0.0339
     27 C          65.9137   92.8894   10.3729 C.3     1  UNL1        0.0346
     28 C          66.9931   92.9316   11.4136 C.3     1  UNL1        0.1422
     29 O          66.4514   92.3138   12.6686 O.3     1  UNL1       -0.3545
@<TRIPOS>BOND
     1     1     2    1
     2     2     3   ar
     3     3     4   ar
     4     4     5   ar
     5     5     6   ar
     6     6    12    1
     7    12    13   ar
     8    13    14   ar
     9    14    15   ar
    10    15    16    1
    11    15    17   ar
    12    17    18   ar
    13    18    19    1
    14     6     7   ar
    15     7    20    1
    16    20    21    1
    17     5     8    1
    18     8     9    2
    19     8    10   am
    20    10    24    1
    21    25    24    1
    22    25    26    1
    23    26    27    1
    24    27    28    1
    25    28    29    1
    26    10    11    1
    27     7     2   ar
    28    29    25    1
    29    11     4    1
    30    18    12   ar
    31    21    22    1
    32    21    23    1
@<TRIPOS>MOLECULE
*****
 29 32 0 0 0
SMALL
GASTEIGER

@<TRIPOS>ATOM
      1 C          63.1151   80.1483   11.5492 C.3     1  UNL1        0.0518
      2 C          63.0078   81.6434   11.6058 C.ar    1  UNL1        0.0563
      3 N          62.9069   82.4366   10.3367 N.ar    1  UNL1       -0.2524
      4 C          62.7996   83.9317   10.3932 C.ar    1  UNL1        0.0830
      5 C          62.7932   84.6336   11.7189 C.ar    1  UNL1        0.0686
      6 C          62.8941   83.8404   12.9880 C.ar    1  UNL1        0.0048
      7 C          63.0014   82.3452   12.9313 C.ar    1  UNL1        0.0072
      8 C          62.6769   86.1070   11.4627 C.2     1  UNL1        0.2506
      9 O          62.6337   87.1827   12.5072 O.2     1  UNL1       -0.2699
     10 N          62.6114   86.3157    9.9788 N.am    1  UNL1       -0.2679
     11 C          62.6872   84.9713    9.3178 C.3     1  UNL1        0.1398
     12 C          62.8878   84.5422   14.3137 C.ar    1  UNL1        0.0106
     13 C          61.5998   84.7205   15.0616 C.ar    1  UNL1        0.0017
     14 C          61.5934   85.4223   16.3873 C.ar    1  UNL1        0.0114
     15 C          62.8749   85.9458   16.9650 C.ar    1  UNL1        0.0585
     16 CL         62.8684   86.6476   18.2907 Cl      1  UNL1       -0.0822
     17 C          64.1628   85.7675   16.2170 C.ar    1  UNL1        0.0228
     18 C          64.1692   85.0657   14.8913 C.ar    1  UNL1        0.0585
     19 CL         65.4572   84.8874   14.1434 Cl      1  UNL1       -0.0822
     20 C          63.1023   81.5520   14.2005 C.3     1  UNL1        0.0934
     21 N          61.8581   81.0576   14.8769 N.3     1  UNL1       -0.3174
     22 H          61.3162   81.8527   15.2152 H       1  UNL1        0.1192
     23 H          62.1131   80.4605   15.6636 H       1  UNL1        0.1192
     24 C          62.4912   87.6368    9.2787 C.3     1  UNL1        0.1235
     25 C          61.7535   88.7676    9.9323 C.3     1  UNL1        0.1351
     26 C          62.3593   90.0499   10.4208 C.3     1  UNL1        0.0339
     27 C          61.2608   90.8894   11.0025 C.3     1  UNL1        0.0346
     28 C          59.9760   90.1260   10.8736 C.3     1  UNL1        0.1422
     29 O          60.2806   88.8145   10.2121 O.3     1  UNL1       -0.3545
@<TRIPOS>BOND
     1     1     2    1
     2     2     3   ar
     3     3     4   ar
     4     4     5   ar
     5     5     6   ar
     6     6    12    1
     7    12    13   ar
     8    13    14   ar
     9    14    15   ar
    10    15    16    1
    11    15    17   ar
    12    17    18   ar
    13    18    19    1
    14     6     7   ar
    15     7    20    1
    16    20    21    1
    17     5     8    1
    18     8     9    2
    19     8    10   am
    20    10    24    1
    21    25    24    1
    22    25    26    1
    23    26    27    1
    24    27    28    1
    25    28    29    1
    26    10    11    1
    27     7     2   ar
    28    29    25    1
    29    11     4    1
    30    18    12   ar
    31    21    22    1
    32    21    23    1
@<TRIPOS>MOLECULE
*****
 29 32 0 0 0
SMALL
GASTEIGER

@<TRIPOS>ATOM
      1 C          62.8228   90.8391   11.9177 C.3     1  UNL1        0.0518
      2 C          62.8526   89.3398   11.8794 C.ar    1  UNL1        0.0563
      3 N          63.3461   88.5689   13.0678 N.ar    1  UNL1       -0.2524
      4 C          63.3759   87.0697   13.0295 C.ar    1  UNL1        0.0830
      5 C          62.9121   86.3414   11.8030 C.ar    1  UNL1        0.0686
      6 C          62.4186   87.1123   10.6147 C.ar    1  UNL1        0.0048
      7 C          62.3888   88.6115   10.6529 C.ar    1  UNL1        0.0072
      8 C          63.0562   84.8698   12.0554 C.2     1  UNL1        0.2506
      9 O          62.7085   83.7722   11.0941 O.2     1  UNL1       -0.2699
     10 N          63.6090   84.6887   13.4380 N.am    1  UNL1       -0.2679
     11 C          63.8066   86.0483   14.0401 C.3     1  UNL1        0.1398
     12 C          61.9548   86.3840    9.3880 C.ar    1  UNL1        0.0106
     13 C          60.5033   86.4006    9.0099 C.ar    1  UNL1        0.0017
     14 C          60.0394   85.6723    7.7833 C.ar    1  UNL1        0.0114
     15 C          61.0271   84.9276    6.9349 C.ar    1  UNL1        0.0585
     16 CL         60.5632   84.1993    5.7083 Cl      1  UNL1       -0.0822
     17 C          62.4785   84.9110    7.3130 C.ar    1  UNL1        0.0228
     18 C          62.9424   85.6392    8.5396 C.ar    1  UNL1        0.0585
     19 CL         64.3939   85.6227    8.9177 Cl      1  UNL1       -0.0822
     20 C          61.8952   89.3825    9.4646 C.3     1  UNL1        0.0934
     21 N          60.5121   89.9629    9.4689 N.3     1  UNL1       -0.3174
     22 H          59.8265   89.2078    9.4792 H       1  UNL1        0.1192
     23 H          60.3793   90.5313    8.6324 H       1  UNL1        0.1192
     24 C          63.9111   83.3781   14.1020 C.3     1  UNL1        0.1235
     25 C          62.9873   82.2114   13.9139 C.3     1  UNL1        0.1351
     26 C          63.2692   80.9866   13.0951 C.3     1  UNL1        0.0339
     27 C          62.0755   80.0830   13.1867 C.3     1  UNL1        0.0346
     28 C          61.0558   80.7491   14.0621 C.3     1  UNL1        0.1422
     29 O          61.6193   82.0647   14.5115 O.3     1  UNL1       -0.3545
@<TRIPOS>BOND
     1     1     2    1
     2     2     3   ar
     3     3     4   ar
     4     4     5   ar
     5     5     6   ar
     6     6    12    1
     7    12    13   ar
     8    13    14   ar
     9    14    15   ar
    10    15    16    1
    11    15    17   ar
    12    17    18   ar
    13    18    19    1
    14     6     7   ar
    15     7    20    1
    16    20    21    1
    17     5     8    1
    18     8     9    2
    19     8    10   am
    20    10    24    1
    21    25    24    1
    22    25    26    1
    23    26    27    1
    24    27    28    1
    25    28    29    1
    26    10    11    1
    27     7     2   ar
    28    29    25    1
    29    11     4    1
    30    18    12   ar
    31    21    22    1
    32    21    23    1
