@<TRIPOS>MOLECULE
*****
 25 28 0 0 0
SMALL
GASTEIGER

@<TRIPOS>ATOM
      1 C          64.0165   87.6459   14.4874 C.ar    1  UNL1        0.1452
      2 N          64.4123   86.3946   15.2138 N.ar    1  UNL1       -0.2267
      3 C          64.1144   85.2264   14.3212 C.ar    1  UNL1        0.1010
      4 C          64.2962   83.7492   14.5070 C.ar    1  UNL1        0.0526
      5 C          63.8982   82.8013   13.4148 C.ar    1  UNL1        0.1690
      6 F          64.0800   81.3239   13.6007 F       1  UNL1       -0.2017
      7 C          63.3183   83.3306   12.1367 C.ar    1  UNL1        0.1689
      8 F          62.9203   82.3826   11.0445 F       1  UNL1       -0.2017
      9 C          63.1364   84.8079   11.9508 C.ar    1  UNL1        0.0507
     10 C          63.5345   85.7558   13.0431 C.ar    1  UNL1        0.0812
     11 N          63.4740   87.2511   13.1458 N.ar    1  UNL1       -0.3132
     12 C          65.2580   91.3902   14.9216 C.ar    1  UNL1        0.0210
     13 C          64.3909   91.8465   16.0573 C.ar    1  UNL1        0.0968
     14 N          63.3990   90.9026   16.6697 N.ar    1  UNL1       -0.2425
     15 C          63.2742   89.5024   16.1464 C.ar    1  UNL1        0.1018
     16 C          64.1413   89.0461   15.0107 C.ar    1  UNL1        0.0531
     17 C          65.1332   89.9900   14.3983 C.ar    1  UNL1        0.0041
     18 C          65.6064   92.1404   12.9681 C.3     1  UNL1        0.0339
     19 C          66.2500   92.3341   14.3091 C.3     1  UNL1        0.1086
     20 C          66.8936   92.5278   15.6500 C.3     1  UNL1        0.0339
     21 O          67.2420   93.2780   13.6967 O.3     1  UNL1       -0.3826
     22 H          67.0634   93.3634   12.7471 H       1  UNL1        0.2107
     23 C          62.9611   88.1872   12.0920 C.3     1  UNL1        0.0870
     24 C          62.7459   89.5836   11.5881 C.3     1  UNL1        0.0245
     25 C          62.2879   88.4123   10.7706 C.3     1  UNL1        0.0245
@<TRIPOS>BOND
     1    18    19    1
     2    19    20    1
     3    19    21    1
     4    19    12    1
     5    12    13   ar
     6    13    14   ar
     7    14    15   ar
     8    15    16   ar
     9    16     1    1
    10     1     2   ar
    11     2     3   ar
    12     3     4   ar
    13     4     5   ar
    14     5     6    1
    15     5     7   ar
    16     7     8    1
    17     7     9   ar
    18     9    10   ar
    19    10    11   ar
    20    11    23    1
    21    23    24    1
    22    24    25    1
    23    16    17   ar
    24    17    12   ar
    25    11     1   ar
    26    25    23    1
    27    10     3   ar
    28    21    22    1
@<TRIPOS>MOLECULE
*****
 25 28 0 0 0
SMALL
GASTEIGER

@<TRIPOS>ATOM
      1 C          63.5568   90.1245   12.8697 C.ar    1  UNL1        0.1452
      2 N          62.8271   90.7688   11.7285 N.ar    1  UNL1       -0.2267
      3 C          62.1706   89.6843   10.9267 C.ar    1  UNL1        0.1010
      4 C          61.3196   89.7240    9.6921 C.ar    1  UNL1        0.0526
      5 C          60.7927   88.4491    9.1032 C.ar    1  UNL1        0.1690
      6 F          59.9417   88.4887    7.8685 F       1  UNL1       -0.2017
      7 C          61.1166   87.1345    9.7488 C.ar    1  UNL1        0.1689
      8 F          60.5896   85.8596    9.1599 F       1  UNL1       -0.2017
      9 C          61.9676   87.0948   10.9835 C.ar    1  UNL1        0.0507
     10 C          62.4945   88.3698   11.5724 C.ar    1  UNL1        0.0812
     11 N          63.3512   88.6418   12.7732 N.ar    1  UNL1       -0.3132
     12 C          66.5961   91.8617   14.7391 C.ar    1  UNL1        0.0210
     13 C          65.9434   92.2641   16.0283 C.ar    1  UNL1        0.0968
     14 N          64.4951   91.9533   16.2646 N.ar    1  UNL1       -0.2425
     15 C          63.6996   91.2402   15.2117 C.ar    1  UNL1        0.1018
     16 C          64.3523   90.8377   13.9226 C.ar    1  UNL1        0.0531
     17 C          65.8006   91.1485   13.6863 C.ar    1  UNL1        0.0041
     18 C          68.2341   92.4064   15.9722 C.3     1  UNL1        0.0339
     19 C          68.0445   92.1724   14.5028 C.3     1  UNL1        0.1086
     20 C          67.8548   91.9384   13.0334 C.3     1  UNL1        0.0339
     21 O          69.4927   92.4831   14.2664 O.3     1  UNL1       -0.3826
     22 H          69.9205   92.6928   15.1113 H       1  UNL1        0.2107
     23 C          63.9052   87.6119   13.7126 C.3     1  UNL1        0.0870
     24 C          64.1496   86.1751   14.0676 C.3     1  UNL1        0.0245
     25 C          64.6201   87.2648   14.9847 C.3     1  UNL1        0.0245
@<TRIPOS>BOND
     1    18    19    1
     2    19    20    1
     3    19    21    1
     4    19    12    1
     5    12    13   ar
     6    13    14   ar
     7    14    15   ar
     8    15    16   ar
     9    16     1    1
    10     1     2   ar
    11     2     3   ar
    12     3     4   ar
    13     4     5   ar
    14     5     6    1
    15     5     7   ar
    16     7     8    1
    17     7     9   ar
    18     9    10   ar
    19    10    11   ar
    20    11    23    1
    21    23    24    1
    22    24    25    1
    23    16    17   ar
    24    17    12   ar
    25    11     1   ar
    26    25    23    1
    27    10     3   ar
    28    21    22    1
@<TRIPOS>MOLECULE
*****
 25 28 0 0 0
SMALL
GASTEIGER

@<TRIPOS>ATOM
      1 C          62.7252   86.2293   12.0500 C.ar    1  UNL1        0.1452
      2 N          62.8562   85.5435   13.3776 N.ar    1  UNL1       -0.2267
      3 C          62.8771   84.0634   13.1347 C.ar    1  UNL1        0.1010
      4 C          62.9884   82.8946   14.0682 C.ar    1  UNL1        0.0526
      5 C          62.9815   81.4968   13.5240 C.ar    1  UNL1        0.1690
      6 F          63.0928   80.3279   14.4575 F       1  UNL1       -0.2017
      7 C          62.8633   81.2679   12.0463 C.ar    1  UNL1        0.1689
      8 F          62.8565   79.8701   11.5021 F       1  UNL1       -0.2017
      9 C          62.7520   82.4367   11.1128 C.ar    1  UNL1        0.0507
     10 C          62.7589   83.8345   11.6570 C.ar    1  UNL1        0.0812
     11 N          62.6650   85.1730   10.9867 N.ar    1  UNL1       -0.3132
     12 C          63.4223   90.1151   12.4554 C.ar    1  UNL1        0.0210
     13 C          62.5443   90.6748   11.3758 C.ar    1  UNL1        0.0968
     14 N          61.7266   89.7527   10.5208 N.ar    1  UNL1       -0.2425
     15 C          61.7869   88.2708   10.7456 C.ar    1  UNL1        0.1018
     16 C          62.6649   87.7111   11.8253 C.ar    1  UNL1        0.0531
     17 C          63.4826   88.6332   12.6802 C.ar    1  UNL1        0.0041
     18 C          63.8394   90.2617   14.5302 C.3     1  UNL1        0.0339
     19 C          64.2401   91.0372   13.3104 C.3     1  UNL1        0.1086
     20 C          64.6408   91.8127   12.0906 C.3     1  UNL1        0.0339
     21 O          65.0579   91.9594   14.1653 O.3     1  UNL1       -0.3826
     22 H          64.9899   91.6853   15.0933 H       1  UNL1        0.2107
     23 C          62.5340   85.4132    9.5118 C.3     1  UNL1        0.0870
     24 C          61.7247   85.8813    8.3387 C.3     1  UNL1        0.0245
     25 C          63.1161   85.3611    8.1304 C.3     1  UNL1        0.0245
@<TRIPOS>BOND
     1    18    19    1
     2    19    20    1
     3    19    21    1
     4    19    12    1
     5    12    13   ar
     6    13    14   ar
     7    14    15   ar
     8    15    16   ar
     9    16     1    1
    10     1     2   ar
    11     2     3   ar
    12     3     4   ar
    13     4     5   ar
    14     5     6    1
    15     5     7   ar
    16     7     8    1
    17     7     9   ar
    18     9    10   ar
    19    10    11   ar
    20    11    23    1
    21    23    24    1
    22    24    25    1
    23    16    17   ar
    24    17    12   ar
    25    11     1   ar
    26    25    23    1
    27    10     3   ar
    28    21    22    1
@<TRIPOS>MOLECULE
*****
 25 28 0 0 0
SMALL
GASTEIGER

@<TRIPOS>ATOM
      1 C          63.4967   86.2948   13.5753 C.ar    1  UNL1        0.1452
      2 N          64.2336   87.1520   14.5612 N.ar    1  UNL1       -0.2267
      3 C          64.2556   88.5548   14.0305 C.ar    1  UNL1        0.1010
      4 C          64.8409   89.8244   14.5739 C.ar    1  UNL1        0.0526
      5 C          64.7027   91.1039   13.8034 C.ar    1  UNL1        0.1690
      6 F          65.2880   92.3737   14.3468 F       1  UNL1       -0.2017
      7 C          63.9793   91.1137   12.4893 C.ar    1  UNL1        0.1689
      8 F          63.8412   92.3932   11.7187 F       1  UNL1       -0.2017
      9 C          63.3941   89.8440   11.9459 C.ar    1  UNL1        0.0507
     10 C          63.5323   88.5645   12.7165 C.ar    1  UNL1        0.0812
     11 N          63.0632   87.1678   12.4352 N.ar    1  UNL1       -0.3132
     12 C          63.0660   82.4643   12.6309 C.ar    1  UNL1        0.0210
     13 C          62.7223   81.8794   13.9687 C.ar    1  UNL1        0.0968
     14 N          62.6367   82.7663   15.1754 N.ar    1  UNL1       -0.2425
     15 C          62.8948   84.2381   15.0442 C.ar    1  UNL1        0.1018
     16 C          63.2386   84.8230   13.7064 C.ar    1  UNL1        0.0531
     17 C          63.3241   83.9361   12.4998 C.ar    1  UNL1        0.0041
     18 C          63.6525   82.7333   10.6101 C.3     1  UNL1        0.0339
     19 C          63.1516   81.5774   11.4242 C.3     1  UNL1        0.1086
     20 C          62.6507   80.4214   12.2383 C.3     1  UNL1        0.0339
     21 O          63.2372   80.6905   10.2176 O.3     1  UNL1       -0.3826
     22 H          63.5610   81.2041    9.4611 H       1  UNL1        0.2107
     23 C          62.2955   86.7223   11.2260 C.3     1  UNL1        0.0870
     24 C          62.2750   86.2095    9.8164 C.3     1  UNL1        0.0245
     25 C          60.9864   86.4635   10.5410 C.3     1  UNL1        0.0245
@<TRIPOS>BOND
     1    18    19    1
     2    19    20    1
     3    19    21    1
     4    19    12    1
     5    12    13   ar
     6    13    14   ar
     7    14    15   ar
     8    15    16   ar
     9    16     1    1
    10     1     2   ar
    11     2     3   ar
    12     3     4   ar
    13     4     5   ar
    14     5     6    1
    15     5     7   ar
    16     7     8    1
    17     7     9   ar
    18     9    10   ar
    19    10    11   ar
    20    11    23    1
    21    23    24    1
    22    24    25    1
    23    16    17   ar
    24    17    12   ar
    25    11     1   ar
    26    25    23    1
    27    10     3   ar
    28    21    22    1
@<TRIPOS>MOLECULE
*****
 25 28 0 0 0
SMALL
GASTEIGER

@<TRIPOS>ATOM
      1 C          63.3048   90.2857   11.5853 C.ar    1  UNL1        0.1452
      2 N          63.6747   91.4006   10.6525 N.ar    1  UNL1       -0.2267
      3 C          64.6259   92.3105   11.3717 C.ar    1  UNL1        0.1010
      4 C          65.3216   93.5708   10.9503 C.ar    1  UNL1        0.0526
      5 C          66.2354   94.2785   11.9064 C.ar    1  UNL1        0.1690
      6 F          66.9313   95.5389   11.4850 F       1  UNL1       -0.2017
      7 C          66.4534   93.7260   13.2838 C.ar    1  UNL1        0.1689
      8 F          67.3672   94.4339   14.2398 F       1  UNL1       -0.2017
      9 C          65.7576   92.4658   13.7051 C.ar    1  UNL1        0.0507
     10 C          64.8438   91.7580   12.7491 C.ar    1  UNL1        0.0812
     11 N          64.0274   90.5067   12.8811 N.ar    1  UNL1       -0.3132
     12 C          61.9838   86.6191   10.8363 C.ar    1  UNL1        0.0210
     13 C          60.5169   86.8769   10.6592 C.ar    1  UNL1        0.0968
     14 N          59.9792   88.2710   10.7908 N.ar    1  UNL1       -0.2425
     15 C          60.9085   89.4073   11.0995 C.ar    1  UNL1        0.1018
     16 C          62.3755   89.1495   11.2766 C.ar    1  UNL1        0.0531
     17 C          62.9131   87.7554   11.1450 C.ar    1  UNL1        0.0041
     18 C          62.6476   85.4135    9.2220 C.3     1  UNL1        0.0339
     19 C          62.5216   85.2250   10.7048 C.3     1  UNL1        0.1086
     20 C          62.3955   85.0365   12.1875 C.3     1  UNL1        0.0339
     21 O          63.0593   83.8309   10.5732 O.3     1  UNL1       -0.3826
     22 H          63.2521   83.6453    9.6409 H       1  UNL1        0.2107
     23 C          63.9475   89.6301   14.0957 C.3     1  UNL1        0.0870
     24 C          64.2194   88.3188   14.7715 C.3     1  UNL1        0.0245
     25 C          63.5373   89.4230   15.5236 C.3     1  UNL1        0.0245
@<TRIPOS>BOND
     1    18    19    1
     2    19    20    1
     3    19    21    1
     4    19    12    1
     5    12    13   ar
     6    13    14   ar
     7    14    15   ar
     8    15    16   ar
     9    16     1    1
    10     1     2   ar
    11     2     3   ar
    12     3     4   ar
    13     4     5   ar
    14     5     6    1
    15     5     7   ar
    16     7     8    1
    17     7     9   ar
    18     9    10   ar
    19    10    11   ar
    20    11    23    1
    21    23    24    1
    22    24    25    1
    23    16    17   ar
    24    17    12   ar
    25    11     1   ar
    26    25    23    1
    27    10     3   ar
    28    21    22    1
@<TRIPOS>MOLECULE
*****
 25 28 0 0 0
SMALL
GASTEIGER

@<TRIPOS>ATOM
      1 C          63.4481   90.0717   11.4589 C.ar    1  UNL1        0.1452
      2 N          63.7999   91.2107   10.5484 N.ar    1  UNL1       -0.2267
      3 C          64.6704   92.1635   11.3130 C.ar    1  UNL1        0.1010
      4 C          65.3175   93.4609   10.9286 C.ar    1  UNL1        0.0526
      5 C          66.1508   94.2082   11.9272 C.ar    1  UNL1        0.1690
      6 F          66.7980   95.5057   11.5428 F       1  UNL1       -0.2017
      7 C          66.3369   93.6580   13.3102 C.ar    1  UNL1        0.1689
      8 F          67.1702   94.4054   14.3088 F       1  UNL1       -0.2017
      9 C          65.6898   92.3606   13.6946 C.ar    1  UNL1        0.0507
     10 C          64.8565   91.6133   12.6960 C.ar    1  UNL1        0.0812
     11 N          64.1011   90.3205   12.7861 N.ar    1  UNL1       -0.3132
     12 C          60.8199   87.7784    9.5660 C.ar    1  UNL1        0.0210
     13 C          60.8839   86.5300   10.3951 C.ar    1  UNL1        0.0968
     14 N          61.8027   86.4622   11.5788 N.ar    1  UNL1       -0.2425
     15 C          62.6574   87.6428   11.9334 C.ar    1  UNL1        0.1018
     16 C          62.5934   88.8911   11.1043 C.ar    1  UNL1        0.0531
     17 C          61.6746   88.9589    9.9206 C.ar    1  UNL1        0.0041
     18 C          59.8943   89.3434    8.4732 C.3     1  UNL1        0.0339
     19 C          59.9011   87.8462    8.3822 C.3     1  UNL1        0.1086
     20 C          59.9079   86.3490    8.2912 C.3     1  UNL1        0.0339
     21 O          58.9823   87.9140    7.1985 O.3     1  UNL1       -0.3826
     22 H          58.7801   88.8415    6.9988 H       1  UNL1        0.2107
     23 C          64.0140   89.4325   13.9919 C.3     1  UNL1        0.0870
     24 C          64.3350   88.1374   14.6773 C.3     1  UNL1        0.0245
     25 C          63.5423   89.1894   15.3948 C.3     1  UNL1        0.0245
@<TRIPOS>BOND
     1    18    19    1
     2    19    20    1
     3    19    21    1
     4    19    12    1
     5    12    13   ar
     6    13    14   ar
     7    14    15   ar
     8    15    16   ar
     9    16     1    1
    10     1     2   ar
    11     2     3   ar
    12     3     4   ar
    13     4     5   ar
    14     5     6    1
    15     5     7   ar
    16     7     8    1
    17     7     9   ar
    18     9    10   ar
    19    10    11   ar
    20    11    23    1
    21    23    24    1
    22    24    25    1
    23    16    17   ar
    24    17    12   ar
    25    11     1   ar
    26    25    23    1
    27    10     3   ar
    28    21    22    1
@<TRIPOS>MOLECULE
*****
 25 28 0 0 0
SMALL
GASTEIGER

@<TRIPOS>ATOM
      1 C          62.8369   85.9457   11.9721 C.ar    1  UNL1        0.1452
      2 N          62.4180   84.8547   11.0318 N.ar    1  UNL1       -0.2267
      3 C          62.7265   83.5386   11.6819 C.ar    1  UNL1        0.1010
      4 C          62.5312   82.1233   11.2252 C.ar    1  UNL1        0.0526
      5 C          62.9454   80.9856   12.1105 C.ar    1  UNL1        0.1690
      6 F          62.7500   79.5701   11.6538 F       1  UNL1       -0.2017
      7 C          63.5550   81.2632   13.4527 C.ar    1  UNL1        0.1689
      8 F          63.9693   80.1254   14.3381 F       1  UNL1       -0.2017
      9 C          63.7504   82.6785   13.9094 C.ar    1  UNL1        0.0507
     10 C          63.3362   83.8162   13.0240 C.ar    1  UNL1        0.0812
     11 N          63.4043   85.3039   13.2033 N.ar    1  UNL1       -0.3132
     12 C          63.2785   89.8684   12.3814 C.ar    1  UNL1        0.0210
     13 C          62.4578   90.3678   11.2295 C.ar    1  UNL1        0.0968
     14 N          61.7634   89.3932   10.3252 N.ar    1  UNL1       -0.2425
     15 C          61.8898   87.9192   10.5727 C.ar    1  UNL1        0.1018
     16 C          62.7105   87.4198   11.7246 C.ar    1  UNL1        0.0531
     17 C          63.4049   88.3944   12.6289 C.ar    1  UNL1        0.0041
     18 C          64.4339   91.6236   12.0909 C.3     1  UNL1        0.0339
     19 C          63.9729   90.8430   13.2859 C.3     1  UNL1        0.1086
     20 C          63.5119   90.0624   14.4809 C.3     1  UNL1        0.0339
     21 O          64.6673   91.8175   14.1904 O.3     1  UNL1       -0.3826
     22 H          65.0980   92.5035   13.6567 H       1  UNL1        0.2107
     23 C          63.9451   86.0234   14.4033 C.3     1  UNL1        0.0870
     24 C          63.7477   86.5807   15.7819 C.3     1  UNL1        0.0245
     25 C          65.0789   86.7123   15.1031 C.3     1  UNL1        0.0245
@<TRIPOS>BOND
     1    18    19    1
     2    19    20    1
     3    19    21    1
     4    19    12    1
     5    12    13   ar
     6    13    14   ar
     7    14    15   ar
     8    15    16   ar
     9    16     1    1
    10     1     2   ar
    11     2     3   ar
    12     3     4   ar
    13     4     5   ar
    14     5     6    1
    15     5     7   ar
    16     7     8    1
    17     7     9   ar
    18     9    10   ar
    19    10    11   ar
    20    11    23    1
    21    23    24    1
    22    24    25    1
    23    16    17   ar
    24    17    12   ar
    25    11     1   ar
    26    25    23    1
    27    10     3   ar
    28    21    22    1
@<TRIPOS>MOLECULE
*****
 25 28 0 0 0
SMALL
GASTEIGER

@<TRIPOS>ATOM
      1 C          62.9443   85.3338   12.5172 C.ar    1  UNL1        0.1452
      2 N          62.9049   84.4476   11.3076 N.ar    1  UNL1       -0.2267
      3 C          62.8836   83.0231   11.7771 C.ar    1  UNL1        0.1010
      4 C          62.8437   81.7215   11.0327 C.ar    1  UNL1        0.0526
      5 C          62.8300   80.4257   11.7881 C.ar    1  UNL1        0.1690
      6 F          62.7901   79.1240   11.0438 F       1  UNL1       -0.2017
      7 C          62.8561   80.4315   13.2879 C.ar    1  UNL1        0.1689
      8 F          62.8424   79.1356   14.0433 F       1  UNL1       -0.2017
      9 C          62.8960   81.7332   14.0322 C.ar    1  UNL1        0.0507
     10 C          62.9097   83.0290   13.2768 C.ar    1  UNL1        0.0812
     11 N          62.9472   84.4570   13.7342 N.ar    1  UNL1       -0.3132
     12 C          62.1146   89.0978   11.5715 C.ar    1  UNL1        0.0210
     13 C          63.0371   89.8328   12.4981 C.ar    1  UNL1        0.0968
     14 N          63.9286   89.0682   13.4310 N.ar    1  UNL1       -0.2425
     15 C          63.8977   87.5686   13.4374 C.ar    1  UNL1        0.1018
     16 C          62.9752   86.8335   12.5108 C.ar    1  UNL1        0.0531
     17 C          62.0836   87.5981   11.5778 C.ar    1  UNL1        0.0041
     18 C          60.0349   89.1051   11.1531 C.3     1  UNL1        0.0339
     19 C          61.2229   89.8624   10.6384 C.3     1  UNL1        0.1086
     20 C          62.4110   90.6196   10.1237 C.3     1  UNL1        0.0339
     21 O          60.3314   90.6269    9.7054 O.3     1  UNL1       -0.3826
     22 H          59.4149   90.3300    9.8181 H       1  UNL1        0.2107
     23 C          62.9816   84.9260   15.1586 C.3     1  UNL1        0.0870
     24 C          63.7495   85.4529   16.3346 C.3     1  UNL1        0.0245
     25 C          62.2735   85.2114   16.4498 C.3     1  UNL1        0.0245
@<TRIPOS>BOND
     1    18    19    1
     2    19    20    1
     3    19    21    1
     4    19    12    1
     5    12    13   ar
     6    13    14   ar
     7    14    15   ar
     8    15    16   ar
     9    16     1    1
    10     1     2   ar
    11     2     3   ar
    12     3     4   ar
    13     4     5   ar
    14     5     6    1
    15     5     7   ar
    16     7     8    1
    17     7     9   ar
    18     9    10   ar
    19    10    11   ar
    20    11    23    1
    21    23    24    1
    22    24    25    1
    23    16    17   ar
    24    17    12   ar
    25    11     1   ar
    26    25    23    1
    27    10     3   ar
    28    21    22    1
@<TRIPOS>MOLECULE
*****
 25 28 0 0 0
SMALL
GASTEIGER

@<TRIPOS>ATOM
      1 C          62.3750   85.2745   12.0823 C.ar    1  UNL1        0.1452
      2 N          61.5419   85.5135   10.8581 N.ar    1  UNL1       -0.2267
      3 C          61.6160   86.9741   10.5248 C.ar    1  UNL1        0.1010
      4 C          60.9967   87.7855    9.4257 C.ar    1  UNL1        0.0526
      5 C          61.2563   89.2606    9.3449 C.ar    1  UNL1        0.1690
      6 F          60.6370   90.0721    8.2458 F       1  UNL1       -0.2017
      7 C          62.1353   89.9244   10.3632 C.ar    1  UNL1        0.1689
      8 F          62.3949   91.3996   10.2824 F       1  UNL1       -0.2017
      9 C          62.7546   89.1130   11.4623 C.ar    1  UNL1        0.0507
     10 C          62.4950   87.6378   11.5431 C.ar    1  UNL1        0.0812
     11 N          62.9640   86.5874   12.5057 N.ar    1  UNL1       -0.3132
     12 C          62.8024   81.3685   12.6398 C.ar    1  UNL1        0.0210
     13 C          62.9980   81.3140   14.1260 C.ar    1  UNL1        0.0968
     14 N          62.9859   82.5796   14.9309 N.ar    1  UNL1       -0.2425
     15 C          62.7783   83.8998   14.2497 C.ar    1  UNL1        0.1018
     16 C          62.5827   83.9543   12.7635 C.ar    1  UNL1        0.0531
     17 C          62.5948   82.6887   11.9586 C.ar    1  UNL1        0.0041
     18 C          63.2282   80.8794   10.6200 C.3     1  UNL1        0.0339
     19 C          62.8145   80.1028   11.8348 C.3     1  UNL1        0.1086
     20 C          62.4008   79.3263   13.0496 C.3     1  UNL1        0.0339
     21 O          62.8265   78.8372   11.0299 O.3     1  UNL1       -0.3826
     22 H          63.0814   79.0378   10.1157 H       1  UNL1        0.2107
     23 C          63.8641   86.8107   13.6846 C.3     1  UNL1        0.0870
     24 C          64.4186   87.7187   14.7421 C.3     1  UNL1        0.0245
     25 C          64.8687   86.2897   14.6692 C.3     1  UNL1        0.0245
@<TRIPOS>BOND
     1    18    19    1
     2    19    20    1
     3    19    21    1
     4    19    12    1
     5    12    13   ar
     6    13    14   ar
     7    14    15   ar
     8    15    16   ar
     9    16     1    1
    10     1     2   ar
    11     2     3   ar
    12     3     4   ar
    13     4     5   ar
    14     5     6    1
    15     5     7   ar
    16     7     8    1
    17     7     9   ar
    18     9    10   ar
    19    10    11   ar
    20    11    23    1
    21    23    24    1
    22    24    25    1
    23    16    17   ar
    24    17    12   ar
    25    11     1   ar
    26    25    23    1
    27    10     3   ar
    28    21    22    1
