@<TRIPOS>MOLECULE
*****
 41 46 0 0 0
SMALL
GASTEIGER

@<TRIPOS>ATOM
      1 C          63.4764   84.4561   12.4708 C.ar    1  UNL1        0.0907
      2 C          63.3241   83.1056   13.1055 C.ar    1  UNL1        0.1496
      3 O          63.4820   83.2699   14.5881 O.2     1  UNL1       -0.4533
      4 C          63.7318   84.7219   14.8696 C.ar    1  UNL1        0.1454
      5 C          63.9620   85.4711   16.1485 C.ar    1  UNL1        0.0375
      6 C          64.1888   86.9536   16.1188 C.ar    1  UNL1        0.0031
      7 C          64.1853   87.6867   14.8102 C.ar    1  UNL1       -0.0001
      8 C          63.9551   86.9375   13.5313 C.ar    1  UNL1        0.0033
      9 C          63.7284   85.4550   13.5610 C.ar    1  UNL1        0.0419
     10 C          63.0603   81.8171   12.3843 C.ar    1  UNL1        0.0349
     11 C          63.2943   81.7237   10.9056 C.ar    1  UNL1        0.0053
     12 C          63.0304   80.4352   10.1844 C.ar    1  UNL1        0.0297
     13 C          62.5326   79.2401   10.9419 C.ar    1  UNL1        0.1401
     14 F          62.2688   77.9516   10.2207 F       1  UNL1       -0.2042
     15 C          62.2986   79.3335   12.4205 C.ar    1  UNL1        0.0297
     16 C          62.5625   80.6220   13.1417 C.ar    1  UNL1        0.0053
     17 C          64.4121   89.1693   14.7805 C.ar    1  UNL1       -0.0038
     18 C          65.4313   89.7535   13.8479 C.ar    1  UNL1        0.0042
     19 C          65.6581   91.2361   13.8182 C.ar    1  UNL1        0.0533
     20 C          64.8655   92.1342   14.7211 C.ar    1  UNL1        0.0042
     21 C          63.8462   91.5498   15.6537 C.ar    1  UNL1       -0.0041
     22 C          63.6195   90.0674   15.6834 C.ar    1  UNL1       -0.0218
     23 C          62.6002   89.4830   16.6160 C.3     1  UNL1        0.0310
     24 C          66.6773   91.8204   12.8857 C.2     1  UNL1        0.2460
     25 O          68.0739   92.0791   13.3680 O.2     1  UNL1       -0.2701
     26 N          66.3000   92.1459   11.4709 N.am    1  UNL1       -0.2991
     27 H          65.3834   91.9760   11.1544 H       1  UNL1        0.1500
     28 C          67.3192   92.7302   10.5383 C.3     1  UNL1        0.0924
     29 C          68.5370   92.8371    9.6691 C.3     1  UNL1        0.0258
     30 C          68.2449   91.5583   10.3969 C.3     1  UNL1        0.0258
     31 C          66.7476   94.1049   10.3559 C.ar    1  UNL1        0.0749
     32 C          66.1347   94.8231   11.5215 C.ar    1  UNL1        0.0163
     33 C          65.5631   96.1978   11.3389 C.ar    1  UNL1        0.0029
     34 C          65.6043   96.8544    9.9909 C.ar    1  UNL1        0.0207
     35 C          66.2171   96.1362    8.8254 C.ar    1  UNL1        0.0985
     36 N          66.7888   94.7614    9.0078 N.ar    1  UNL1       -0.2466
     37 C          62.2714   86.0118    9.0242 C.3     1  UNL1        0.1109
     38 N          62.3563   85.7127   10.4917 N.am    1  UNL1       -0.2991
     39 C          63.3915   84.7553   11.0033 C.2     1  UNL1        0.2490
     40 O          64.3419   84.0972   10.0475 O.2     1  UNL1       -0.2700
     41 H          61.7325   86.1447   11.1190 H       1  UNL1        0.1498
@<TRIPOS>BOND
     1    37    38    1
     2    38    39   am
     3    39    40    2
     4    39     1    1
     5     1     2   ar
     6     2    10    1
     7    10    11   ar
     8    11    12   ar
     9    12    13   ar
    10    13    14    1
    11    13    15   ar
    12    15    16   ar
    13     2     3   ar
    14     3     4   ar
    15     4     5   ar
    16     5     6   ar
    17     6     7   ar
    18     7    17    1
    19    17    18   ar
    20    18    19   ar
    21    19    24    1
    22    24    25    2
    23    24    26   am
    24    26    28    1
    25    28    31    1
    26    31    32   ar
    27    32    33   ar
    28    33    34   ar
    29    34    35   ar
    30    35    36   ar
    31    28    29    1
    32    29    30    1
    33    19    20   ar
    34    20    21   ar
    35    21    22   ar
    36    22    23    1
    37     7     8   ar
    38     8     9   ar
    39     9     1   ar
    40    16    10   ar
    41     9     4   ar
    42    22    17   ar
    43    30    28    1
    44    36    31   ar
    45    38    41    1
    46    26    27    1
@<TRIPOS>MOLECULE
*****
 41 46 0 0 0
SMALL
GASTEIGER

@<TRIPOS>ATOM
      1 C          60.7775   91.9447    3.5591 C.ar    1  UNL1        0.0907
      2 C          59.7363   92.6407    2.7335 C.ar    1  UNL1        0.1496
      3 O          58.3978   92.3769    3.3571 O.2     1  UNL1       -0.4533
      4 C          58.6117   91.5179    4.5681 C.ar    1  UNL1        0.1454
      5 C          57.6574   90.9444    5.5731 C.ar    1  UNL1        0.0375
      6 C          58.1737   90.1039    6.7031 C.ar    1  UNL1        0.0031
      7 C          59.6445   89.8367    6.8279 C.ar    1  UNL1       -0.0001
      8 C          60.5988   90.4102    5.8228 C.ar    1  UNL1        0.0033
      9 C          60.0825   91.2508    4.6929 C.ar    1  UNL1        0.0419
     10 C          59.9892   93.4571    1.5008 C.ar    1  UNL1        0.0349
     11 C          60.1210   94.9478    1.6025 C.ar    1  UNL1        0.0053
     12 C          60.3739   95.7642    0.3698 C.ar    1  UNL1        0.0297
     13 C          60.4950   95.0899   -0.9645 C.ar    1  UNL1        0.1401
     14 F          60.7479   95.9063   -2.1972 F       1  UNL1       -0.2042
     15 C          60.3632   93.5992   -1.0662 C.ar    1  UNL1        0.0297
     16 C          60.1103   92.7828    0.1664 C.ar    1  UNL1        0.0053
     17 C          60.1608   88.9961    7.9579 C.ar    1  UNL1       -0.0038
     18 C          60.6852   89.6512    9.2012 C.ar    1  UNL1        0.0042
     19 C          61.2015   88.8106   10.3312 C.ar    1  UNL1        0.0533
     20 C          61.1934   87.3149   10.2178 C.ar    1  UNL1        0.0042
     21 C          60.6690   86.6598    8.9744 C.ar    1  UNL1       -0.0041
     22 C          60.1527   87.5004    7.8445 C.ar    1  UNL1       -0.0218
     23 C          59.6283   86.8454    6.6011 C.3     1  UNL1        0.0310
     24 C          61.7259   89.4656   11.5745 C.2     1  UNL1        0.2460
     25 O          60.7827   89.8436   12.6779 O.2     1  UNL1       -0.2701
     26 N          63.1934   89.7427   11.7145 N.am    1  UNL1       -0.2991
     27 H          63.8124   89.4946   10.9903 H       1  UNL1        0.1500
     28 C          63.7178   90.3977   12.9578 C.3     1  UNL1        0.0924
     29 C          63.9846   90.6520   14.4118 C.3     1  UNL1        0.0258
     30 C          63.1584   89.4710   13.9962 C.3     1  UNL1        0.0258
     31 C          64.4592   91.5520   12.3512 C.ar    1  UNL1        0.0749
     32 C          64.3383   91.8326   10.8826 C.ar    1  UNL1        0.0163
     33 C          65.0798   92.9868   10.2761 C.ar    1  UNL1        0.0029
     34 C          65.9421   93.8605   11.1381 C.ar    1  UNL1        0.0207
     35 C          66.0630   93.5800   12.6066 C.ar    1  UNL1        0.0985
     36 N          65.3215   92.4257   13.2132 N.ar    1  UNL1       -0.2466
     37 C          64.3459   93.0242    2.1983 C.3     1  UNL1        0.1109
     38 N          62.8690   93.0259    2.4605 N.am    1  UNL1       -0.2991
     39 C          62.2544   91.9429    3.2969 C.2     1  UNL1        0.2490
     40 O          63.1167   90.8582    3.8710 O.2     1  UNL1       -0.2700
     41 H          62.3030   93.7379    2.0837 H       1  UNL1        0.1498
@<TRIPOS>BOND
     1    37    38    1
     2    38    39   am
     3    39    40    2
     4    39     1    1
     5     1     2   ar
     6     2    10    1
     7    10    11   ar
     8    11    12   ar
     9    12    13   ar
    10    13    14    1
    11    13    15   ar
    12    15    16   ar
    13     2     3   ar
    14     3     4   ar
    15     4     5   ar
    16     5     6   ar
    17     6     7   ar
    18     7    17    1
    19    17    18   ar
    20    18    19   ar
    21    19    24    1
    22    24    25    2
    23    24    26   am
    24    26    28    1
    25    28    31    1
    26    31    32   ar
    27    32    33   ar
    28    33    34   ar
    29    34    35   ar
    30    35    36   ar
    31    28    29    1
    32    29    30    1
    33    19    20   ar
    34    20    21   ar
    35    21    22   ar
    36    22    23    1
    37     7     8   ar
    38     8     9   ar
    39     9     1   ar
    40    16    10   ar
    41     9     4   ar
    42    22    17   ar
    43    30    28    1
    44    36    31   ar
    45    38    41    1
    46    26    27    1
@<TRIPOS>MOLECULE
*****
 41 46 0 0 0
SMALL
GASTEIGER

@<TRIPOS>ATOM
      1 C          64.6065   91.4162   12.0734 C.ar    1  UNL1        0.0907
      2 C          64.8255   91.5390   13.5522 C.ar    1  UNL1        0.1496
      3 O          63.7681   90.7322   14.2458 O.2     1  UNL1       -0.4533
      4 C          62.8957   90.1108   13.1956 C.ar    1  UNL1        0.1454
      5 C          61.6964   89.2147   13.2885 C.ar    1  UNL1        0.0375
      6 C          61.0153   88.7414   12.0387 C.ar    1  UNL1        0.0031
      7 C          61.5335   89.1642   10.6961 C.ar    1  UNL1       -0.0001
      8 C          62.7328   90.0603   10.6032 C.ar    1  UNL1        0.0033
      9 C          63.4139   90.5336   11.8530 C.ar    1  UNL1        0.0419
     10 C          65.9111   92.3296   14.2202 C.ar    1  UNL1        0.0349
     11 C          66.6876   91.7284   15.3540 C.ar    1  UNL1        0.0053
     12 C          67.7733   92.5191   16.0220 C.ar    1  UNL1        0.0297
     13 C          68.0825   93.9110   15.5561 C.ar    1  UNL1        0.1401
     14 F          69.1681   94.7016   16.2241 F       1  UNL1       -0.2042
     15 C          67.3060   94.5121   14.4222 C.ar    1  UNL1        0.0297
     16 C          66.2204   93.7215   13.7543 C.ar    1  UNL1        0.0053
     17 C          60.8523   88.6908    9.4462 C.ar    1  UNL1       -0.0038
     18 C          60.4371   89.6799    8.3978 C.ar    1  UNL1        0.0042
     19 C          59.7560   89.2065    7.1479 C.ar    1  UNL1        0.0533
     20 C          59.4900   87.7440    6.9467 C.ar    1  UNL1        0.0042
     21 C          59.9052   86.7550    7.9952 C.ar    1  UNL1       -0.0041
     22 C          60.5864   87.2284    9.2450 C.ar    1  UNL1       -0.0218
     23 C          61.0016   86.2393   10.2935 C.3     1  UNL1        0.0310
     24 C          59.3408   90.1955    6.0994 C.2     1  UNL1        0.2460
     25 O          57.8853   90.4220    5.8165 O.2     1  UNL1       -0.2701
     26 N          60.3811   90.9581    5.3339 N.am    1  UNL1       -0.2991
     27 H          61.3365   90.8095    5.5196 H       1  UNL1        0.1500
     28 C          59.9660   91.9472    4.2854 C.3     1  UNL1        0.0924
     29 C          59.1075   92.9006    3.5082 C.3     1  UNL1        0.0258
     30 C          58.5453   92.1879    4.7024 C.3     1  UNL1        0.0258
     31 C          61.2423   92.0500    3.5043 C.ar    1  UNL1        0.0749
     32 C          62.3689   91.0985    3.7796 C.ar    1  UNL1        0.0163
     33 C          63.6452   91.2014    2.9984 C.ar    1  UNL1        0.0029
     34 C          63.7952   92.2556    1.9419 C.ar    1  UNL1        0.0207
     35 C          62.6688   93.2070    1.6667 C.ar    1  UNL1        0.0985
     36 N          61.3923   93.1042    2.4478 N.ar    1  UNL1       -0.2466
     37 C          67.7430   92.4692    9.8816 C.3     1  UNL1        0.1109
     38 N          66.9147   91.8228   10.9521 N.am    1  UNL1       -0.2991
     39 C          65.4348   92.0626   11.0028 C.2     1  UNL1        0.2490
     40 O          64.7834   92.9488    9.9829 O.2     1  UNL1       -0.2700
     41 H          67.3424   91.2412   11.6215 H       1  UNL1        0.1498
@<TRIPOS>BOND
     1    37    38    1
     2    38    39   am
     3    39    40    2
     4    39     1    1
     5     1     2   ar
     6     2    10    1
     7    10    11   ar
     8    11    12   ar
     9    12    13   ar
    10    13    14    1
    11    13    15   ar
    12    15    16   ar
    13     2     3   ar
    14     3     4   ar
    15     4     5   ar
    16     5     6   ar
    17     6     7   ar
    18     7    17    1
    19    17    18   ar
    20    18    19   ar
    21    19    24    1
    22    24    25    2
    23    24    26   am
    24    26    28    1
    25    28    31    1
    26    31    32   ar
    27    32    33   ar
    28    33    34   ar
    29    34    35   ar
    30    35    36   ar
    31    28    29    1
    32    29    30    1
    33    19    20   ar
    34    20    21   ar
    35    21    22   ar
    36    22    23    1
    37     7     8   ar
    38     8     9   ar
    39     9     1   ar
    40    16    10   ar
    41     9     4   ar
    42    22    17   ar
    43    30    28    1
    44    36    31   ar
    45    38    41    1
    46    26    27    1
@<TRIPOS>MOLECULE
*****
 41 46 0 0 0
SMALL
GASTEIGER

@<TRIPOS>ATOM
      1 C          60.8026   91.9295    3.5428 C.ar    1  UNL1        0.0907
      2 C          59.7347   92.5692    2.7060 C.ar    1  UNL1        0.1496
      3 O          58.4090   92.2781    3.3445 O.2     1  UNL1       -0.4533
      4 C          58.6576   91.4585    4.5760 C.ar    1  UNL1        0.1454
      5 C          57.7280   90.8806    5.6016 C.ar    1  UNL1        0.0375
      6 C          58.2778   90.0873    6.7497 C.ar    1  UNL1        0.0031
      7 C          59.7572   89.8718    6.8723 C.ar    1  UNL1       -0.0001
      8 C          60.6867   90.4498    5.8467 C.ar    1  UNL1        0.0033
      9 C          60.1369   91.2431    4.6986 C.ar    1  UNL1        0.0419
     10 C          59.9539   93.3609    1.4510 C.ar    1  UNL1        0.0349
     11 C          60.1023   92.6556    0.1355 C.ar    1  UNL1        0.0053
     12 C          60.3216   93.4473   -1.1195 C.ar    1  UNL1        0.0297
     13 C          60.3925   94.9444   -1.0591 C.ar    1  UNL1        0.1401
     14 F          60.6118   95.7362   -2.3141 F       1  UNL1       -0.2042
     15 C          60.2441   95.6498    0.2564 C.ar    1  UNL1        0.0297
     16 C          60.0248   94.8580    1.5114 C.ar    1  UNL1        0.0053
     17 C          60.3069   89.0784    8.0205 C.ar    1  UNL1       -0.0038
     18 C          61.0446   89.7726    9.1267 C.ar    1  UNL1        0.0042
     19 C          61.5944   88.9792   10.2750 C.ar    1  UNL1        0.0533
     20 C          61.4065   87.4916   10.3168 C.ar    1  UNL1        0.0042
     21 C          60.6687   86.7974    9.2105 C.ar    1  UNL1       -0.0041
     22 C          60.1190   87.5908    8.0623 C.ar    1  UNL1       -0.0218
     23 C          59.3813   86.8967    6.9560 C.3     1  UNL1        0.0310
     24 C          62.3321   89.6734   11.3812 C.2     1  UNL1        0.2460
     25 O          62.1767   91.1529   11.5733 O.2     1  UNL1       -0.2701
     26 N          63.2251   88.8881   12.2954 N.am    1  UNL1       -0.2991
     27 H          63.3271   87.9170   12.1694 H       1  UNL1        0.1500
     28 C          63.9628   89.5823   13.4017 C.3     1  UNL1        0.0924
     29 C          64.7633   90.6242   14.1253 C.3     1  UNL1        0.0258
     30 C          64.3999   90.8247   12.6838 C.3     1  UNL1        0.0258
     31 C          63.7820   88.5810   14.5038 C.ar    1  UNL1        0.0749
     32 C          64.2110   87.1578   14.3020 C.ar    1  UNL1        0.0163
     33 C          64.0301   86.1566   15.4042 C.ar    1  UNL1        0.0029
     34 C          63.4203   86.5784   16.7081 C.ar    1  UNL1        0.0207
     35 C          62.9913   88.0014   16.9098 C.ar    1  UNL1        0.0985
     36 N          63.1722   89.0028   15.8077 N.ar    1  UNL1       -0.2466
     37 C          64.3476   93.1702    2.2605 C.3     1  UNL1        0.1109
     38 N          62.8729   93.1305    2.5318 N.am    1  UNL1       -0.2991
     39 C          62.2774   91.9693    3.2716 C.2     1  UNL1        0.2490
     40 O          63.1566   90.8481    3.7401 O.2     1  UNL1       -0.2700
     41 H          62.2958   93.8664    2.2242 H       1  UNL1        0.1498
@<TRIPOS>BOND
     1    37    38    1
     2    38    39   am
     3    39    40    2
     4    39     1    1
     5     1     2   ar
     6     2    10    1
     7    10    11   ar
     8    11    12   ar
     9    12    13   ar
    10    13    14    1
    11    13    15   ar
    12    15    16   ar
    13     2     3   ar
    14     3     4   ar
    15     4     5   ar
    16     5     6   ar
    17     6     7   ar
    18     7    17    1
    19    17    18   ar
    20    18    19   ar
    21    19    24    1
    22    24    25    2
    23    24    26   am
    24    26    28    1
    25    28    31    1
    26    31    32   ar
    27    32    33   ar
    28    33    34   ar
    29    34    35   ar
    30    35    36   ar
    31    28    29    1
    32    29    30    1
    33    19    20   ar
    34    20    21   ar
    35    21    22   ar
    36    22    23    1
    37     7     8   ar
    38     8     9   ar
    39     9     1   ar
    40    16    10   ar
    41     9     4   ar
    42    22    17   ar
    43    30    28    1
    44    36    31   ar
    45    38    41    1
    46    26    27    1
@<TRIPOS>MOLECULE
*****
 41 46 0 0 0
SMALL
GASTEIGER

@<TRIPOS>ATOM
      1 C          60.4468   87.9313    8.8651 C.ar    1  UNL1        0.0907
      2 C          60.1847   88.0081    7.3902 C.ar    1  UNL1        0.1496
      3 O          60.8485   86.8308    6.7395 O.2     1  UNL1       -0.4533
      4 C          61.5210   86.0264    7.8123 C.ar    1  UNL1        0.1454
      5 C          62.3272   84.7626    7.7626 C.ar    1  UNL1        0.0375
      6 C          62.8852   84.1788    9.0267 C.ar    1  UNL1        0.0031
      7 C          62.6370   84.8590   10.3404 C.ar    1  UNL1       -0.0001
      8 C          61.8307   86.1228   10.3900 C.ar    1  UNL1        0.0033
      9 C          61.2727   86.7066    9.1260 C.ar    1  UNL1        0.0419
     10 C          59.3970   89.0748    6.6890 C.ar    1  UNL1        0.0349
     11 C          60.1085   90.1688    5.9496 C.ar    1  UNL1        0.0053
     12 C          59.3208   91.2356    5.2484 C.ar    1  UNL1        0.0297
     13 C          57.8216   91.2083    5.2867 C.ar    1  UNL1        0.1401
     14 F          57.0339   92.2750    4.5856 F       1  UNL1       -0.2042
     15 C          57.1101   90.1143    6.0261 C.ar    1  UNL1        0.0297
     16 C          57.8978   89.0475    6.7273 C.ar    1  UNL1        0.0053
     17 C          63.1950   84.2752   11.6044 C.ar    1  UNL1       -0.0038
     18 C          63.2734   85.1124   12.8465 C.ar    1  UNL1        0.0042
     19 C          63.8314   84.5286   14.1106 C.ar    1  UNL1        0.0533
     20 C          64.3111   83.1076   14.1325 C.ar    1  UNL1        0.0042
     21 C          64.2327   82.2703   12.8903 C.ar    1  UNL1       -0.0041
     22 C          63.6747   82.8541   11.6263 C.ar    1  UNL1       -0.0218
     23 C          63.5963   82.0168   10.3842 C.3     1  UNL1        0.0310
     24 C          63.9098   85.3659   15.3527 C.2     1  UNL1        0.2460
     25 O          64.9838   85.1046   16.3667 O.2     1  UNL1       -0.2701
     26 N          62.9141   86.4643   15.5808 N.am    1  UNL1       -0.2991
     27 H          62.2092   86.6358   14.9152 H       1  UNL1        0.1500
     28 C          62.9924   87.3016   16.8229 C.3     1  UNL1        0.0924
     29 C          62.8984   87.6913   18.2683 C.3     1  UNL1        0.0258
     30 C          62.5231   86.3036   17.8397 C.3     1  UNL1        0.0258
     31 C          63.4889   88.5903   16.2375 C.ar    1  UNL1        0.0749
     32 C          64.2645   88.5812   14.9535 C.ar    1  UNL1        0.0163
     33 C          64.7610   89.8700   14.3682 C.ar    1  UNL1        0.0029
     34 C          64.4820   91.1677   15.0667 C.ar    1  UNL1        0.0207
     35 C          63.7065   91.1768   16.3505 C.ar    1  UNL1        0.0985
     36 N          63.2100   89.8880   16.9360 N.ar    1  UNL1       -0.2466
     37 C          59.0304   89.3929   12.2721 C.3     1  UNL1        0.1109
     38 N          59.5099   88.4165   11.2393 N.am    1  UNL1       -0.2991
     39 C          59.9673   88.9077    9.8978 C.2     1  UNL1        0.2490
     40 O          59.9451   90.3754    9.5892 O.2     1  UNL1       -0.2700
     41 H          59.5244   87.4531   11.4419 H       1  UNL1        0.1498
@<TRIPOS>BOND
     1    37    38    1
     2    38    39   am
     3    39    40    2
     4    39     1    1
     5     1     2   ar
     6     2    10    1
     7    10    11   ar
     8    11    12   ar
     9    12    13   ar
    10    13    14    1
    11    13    15   ar
    12    15    16   ar
    13     2     3   ar
    14     3     4   ar
    15     4     5   ar
    16     5     6   ar
    17     6     7   ar
    18     7    17    1
    19    17    18   ar
    20    18    19   ar
    21    19    24    1
    22    24    25    2
    23    24    26   am
    24    26    28    1
    25    28    31    1
    26    31    32   ar
    27    32    33   ar
    28    33    34   ar
    29    34    35   ar
    30    35    36   ar
    31    28    29    1
    32    29    30    1
    33    19    20   ar
    34    20    21   ar
    35    21    22   ar
    36    22    23    1
    37     7     8   ar
    38     8     9   ar
    39     9     1   ar
    40    16    10   ar
    41     9     4   ar
    42    22    17   ar
    43    30    28    1
    44    36    31   ar
    45    38    41    1
    46    26    27    1
@<TRIPOS>MOLECULE
*****
 41 46 0 0 0
SMALL
GASTEIGER

@<TRIPOS>ATOM
      1 C          63.2613   84.6350   12.1196 C.ar    1  UNL1        0.0907
      2 C          63.5659   83.2578   12.6300 C.ar    1  UNL1        0.1496
      3 O          64.2082   83.3948   13.9786 O.2     1  UNL1       -0.4533
      4 C          64.3004   84.8567   14.3017 C.ar    1  UNL1        0.1454
      5 C          64.8417   85.5889   15.4937 C.ar    1  UNL1        0.0375
      6 C          64.7977   87.0876   15.5368 C.ar    1  UNL1        0.0031
      7 C          64.2125   87.8541   14.3879 C.ar    1  UNL1       -0.0001
      8 C          63.6712   87.1219   13.1959 C.ar    1  UNL1        0.0033
      9 C          63.7152   85.6232   13.1528 C.ar    1  UNL1        0.0419
     10 C          63.2788   81.9697   11.9169 C.ar    1  UNL1        0.0349
     11 C          62.7023   80.8078   12.6701 C.ar    1  UNL1        0.0053
     12 C          62.4151   79.5198   11.9571 C.ar    1  UNL1        0.0297
     13 C          62.7046   79.3936   10.4907 C.ar    1  UNL1        0.1401
     14 F          62.4174   78.1056    9.7776 F       1  UNL1       -0.2042
     15 C          63.2811   80.5556    9.7374 C.ar    1  UNL1        0.0297
     16 C          63.5683   81.8436   10.4505 C.ar    1  UNL1        0.0053
     17 C          64.1685   89.3529   14.4310 C.ar    1  UNL1       -0.0038
     18 C          64.5709   90.1500   13.2258 C.ar    1  UNL1        0.0042
     19 C          64.5269   91.6488   13.2689 C.ar    1  UNL1        0.0533
     20 C          64.0806   92.3504   14.5173 C.ar    1  UNL1        0.0042
     21 C          63.6783   91.5532   15.7226 C.ar    1  UNL1       -0.0041
     22 C          63.7222   90.0545   15.6795 C.ar    1  UNL1       -0.0218
     23 C          63.3199   89.2573   16.8848 C.3     1  UNL1        0.0310
     24 C          64.9293   92.4459   12.0636 C.2     1  UNL1        0.2460
     25 O          64.6102   91.9389   10.6885 O.2     1  UNL1       -0.2701
     26 N          65.6507   93.7500   12.2335 N.am    1  UNL1       -0.2991
     27 H          65.8602   94.0827   13.1361 H       1  UNL1        0.1500
     28 C          66.0531   94.5471   11.0283 C.3     1  UNL1        0.0924
     29 C          66.1017   95.6657   10.0301 C.3     1  UNL1        0.0258
     30 C          65.1744   95.7497   11.2062 C.3     1  UNL1        0.0258
     31 C          67.0714   93.6213   10.4318 C.ar    1  UNL1        0.0749
     32 C          67.4626   93.7648    8.9908 C.ar    1  UNL1        0.0163
     33 C          68.4810   92.8390    8.3944 C.ar    1  UNL1        0.0029
     34 C          69.1083   91.7698    9.2389 C.ar    1  UNL1        0.0207
     35 C          68.7172   91.6263   10.6797 C.ar    1  UNL1        0.0985
     36 N          67.6987   92.5520   11.2763 N.ar    1  UNL1       -0.2466
     37 C          62.7180   85.0715    8.2126 C.3     1  UNL1        0.1109
     38 N          63.3633   84.7405    9.5256 N.am    1  UNL1       -0.2991
     39 C          62.6160   84.9660   10.8066 C.2     1  UNL1        0.2490
     40 O          61.2234   85.5225   10.7744 O.2     1  UNL1       -0.2700
     41 H          64.2773   84.3753    9.5467 H       1  UNL1        0.1498
@<TRIPOS>BOND
     1    37    38    1
     2    38    39   am
     3    39    40    2
     4    39     1    1
     5     1     2   ar
     6     2    10    1
     7    10    11   ar
     8    11    12   ar
     9    12    13   ar
    10    13    14    1
    11    13    15   ar
    12    15    16   ar
    13     2     3   ar
    14     3     4   ar
    15     4     5   ar
    16     5     6   ar
    17     6     7   ar
    18     7    17    1
    19    17    18   ar
    20    18    19   ar
    21    19    24    1
    22    24    25    2
    23    24    26   am
    24    26    28    1
    25    28    31    1
    26    31    32   ar
    27    32    33   ar
    28    33    34   ar
    29    34    35   ar
    30    35    36   ar
    31    28    29    1
    32    29    30    1
    33    19    20   ar
    34    20    21   ar
    35    21    22   ar
    36    22    23    1
    37     7     8   ar
    38     8     9   ar
    39     9     1   ar
    40    16    10   ar
    41     9     4   ar
    42    22    17   ar
    43    30    28    1
    44    36    31   ar
    45    38    41    1
    46    26    27    1
@<TRIPOS>MOLECULE
*****
 41 46 0 0 0
SMALL
GASTEIGER

@<TRIPOS>ATOM
      1 C          61.6634   88.5622   10.2399 C.ar    1  UNL1        0.0907
      2 C          61.8697   87.1762   10.7750 C.ar    1  UNL1        0.1496
      3 O          61.1543   86.2184    9.8690 O.2     1  UNL1       -0.4533
      4 C          60.5059   87.0125    8.7740 C.ar    1  UNL1        0.1454
      5 C          59.6697   86.6036    7.5978 C.ar    1  UNL1        0.0375
      6 C          59.1482   87.6434    6.6508 C.ar    1  UNL1        0.0031
      7 C          59.4629   89.0920    6.8800 C.ar    1  UNL1       -0.0001
      8 C          60.2991   89.5008    8.0562 C.ar    1  UNL1        0.0033
      9 C          60.8206   88.4611    9.0032 C.ar    1  UNL1        0.0419
     10 C          62.6536   86.8119   12.0009 C.ar    1  UNL1        0.0349
     11 C          63.3458   87.8808   12.7936 C.ar    1  UNL1        0.0053
     12 C          64.1297   87.5165   14.0194 C.ar    1  UNL1        0.0297
     13 C          64.2215   86.0834   14.4526 C.ar    1  UNL1        0.1401
     14 F          65.0054   85.7191   15.6785 F       1  UNL1       -0.2042
     15 C          63.5293   85.0146   13.6600 C.ar    1  UNL1        0.0297
     16 C          62.7453   85.3788   12.4341 C.ar    1  UNL1        0.0053
     17 C          58.9413   90.1318    5.9329 C.ar    1  UNL1       -0.0038
     18 C          59.8960   90.9302    5.0958 C.ar    1  UNL1        0.0042
     19 C          59.3744   91.9700    4.1487 C.ar    1  UNL1        0.0533
     20 C          57.8981   92.2112    4.0388 C.ar    1  UNL1        0.0042
     21 C          56.9433   91.4127    4.8760 C.ar    1  UNL1       -0.0041
     22 C          57.4649   90.3730    5.8230 C.ar    1  UNL1       -0.0218
     23 C          56.5101   89.5745    6.6602 C.3     1  UNL1        0.0310
     24 C          60.3292   92.7685    3.3116 C.2     1  UNL1        0.2460
     25 O          60.2075   94.2624    3.2540 O.2     1  UNL1       -0.2701
     26 N          61.4057   92.0730    2.5321 N.am    1  UNL1       -0.2991
     27 H          61.4855   91.0925    2.5699 H       1  UNL1        0.1500
     28 C          62.3605   92.8715    1.6950 C.3     1  UNL1        0.0924
     29 C          63.6238   93.5539    1.2612 C.3     1  UNL1        0.0258
     30 C          63.5806   92.8145    2.5657 C.3     1  UNL1        0.0258
     31 C          61.4719   93.2058    0.5337 C.ar    1  UNL1        0.0749
     32 C          60.6018   92.1460   -0.0744 C.ar    1  UNL1        0.0163
     33 C          59.7133   92.4804   -1.2358 C.ar    1  UNL1        0.0029
     34 C          59.6949   93.8745   -1.7890 C.ar    1  UNL1        0.0207
     35 C          60.5649   94.9342   -1.1810 C.ar    1  UNL1        0.0985
     36 N          61.4535   94.5999   -0.0196 N.ar    1  UNL1       -0.2466
     37 C          63.9988   91.7064   10.8810 C.3     1  UNL1        0.1109
     38 N          63.4572   90.4413   10.2842 N.am    1  UNL1       -0.2991
     39 C          62.2050   89.8274   10.8367 C.2     1  UNL1        0.2490
     40 O          61.4944   90.4787   11.9859 O.2     1  UNL1       -0.2700
     41 H          63.9237   90.0138    9.5299 H       1  UNL1        0.1498
@<TRIPOS>BOND
     1    37    38    1
     2    38    39   am
     3    39    40    2
     4    39     1    1
     5     1     2   ar
     6     2    10    1
     7    10    11   ar
     8    11    12   ar
     9    12    13   ar
    10    13    14    1
    11    13    15   ar
    12    15    16   ar
    13     2     3   ar
    14     3     4   ar
    15     4     5   ar
    16     5     6   ar
    17     6     7   ar
    18     7    17    1
    19    17    18   ar
    20    18    19   ar
    21    19    24    1
    22    24    25    2
    23    24    26   am
    24    26    28    1
    25    28    31    1
    26    31    32   ar
    27    32    33   ar
    28    33    34   ar
    29    34    35   ar
    30    35    36   ar
    31    28    29    1
    32    29    30    1
    33    19    20   ar
    34    20    21   ar
    35    21    22   ar
    36    22    23    1
    37     7     8   ar
    38     8     9   ar
    39     9     1   ar
    40    16    10   ar
    41     9     4   ar
    42    22    17   ar
    43    30    28    1
    44    36    31   ar
    45    38    41    1
    46    26    27    1
@<TRIPOS>MOLECULE
*****
 41 46 0 0 0
SMALL
GASTEIGER

@<TRIPOS>ATOM
      1 C          62.3437   86.1012    9.6275 C.ar    1  UNL1        0.0907
      2 C          62.6230   84.8588    8.8350 C.ar    1  UNL1        0.1496
      3 O          63.3039   83.8751    9.7398 O.2     1  UNL1       -0.4533
      4 C          63.4452   84.5096   11.0917 C.ar    1  UNL1        0.1454
      5 C          64.0377   84.0123   12.3768 C.ar    1  UNL1        0.0375
      6 C          64.0367   84.8909   13.5926 C.ar    1  UNL1        0.0031
      7 C          63.4432   86.2667   13.5231 C.ar    1  UNL1       -0.0001
      8 C          62.8508   86.7640   12.2380 C.ar    1  UNL1        0.0033
      9 C          62.8518   85.8855   11.0223 C.ar    1  UNL1        0.0419
     10 C          62.2816   84.6386    7.3910 C.ar    1  UNL1        0.0349
     11 C          63.3552   84.7148    6.3464 C.ar    1  UNL1        0.0053
     12 C          63.0138   84.4947    4.9024 C.ar    1  UNL1        0.0297
     13 C          61.5986   84.1984    4.5032 C.ar    1  UNL1        0.1401
     14 F          61.2571   83.9782    3.0592 F       1  UNL1       -0.2042
     15 C          60.5249   84.1222    5.5478 C.ar    1  UNL1        0.0297
     16 C          60.8664   84.3423    6.9917 C.ar    1  UNL1        0.0053
     17 C          63.4423   87.1453   14.7390 C.ar    1  UNL1       -0.0038
     18 C          63.9780   88.5438   14.6542 C.ar    1  UNL1        0.0042
     19 C          63.9770   89.4224   15.8700 C.ar    1  UNL1        0.0533
     20 C          63.4403   88.9024   17.1706 C.ar    1  UNL1        0.0042
     21 C          62.9045   87.5038   17.2554 C.ar    1  UNL1       -0.0041
     22 C          62.9055   86.6254   16.0396 C.ar    1  UNL1       -0.0218
     23 C          62.3698   85.2268   16.1243 C.3     1  UNL1        0.0310
     24 C          64.5127   90.8208   15.7852 C.2     1  UNL1        0.2460
     25 O          63.8066   91.9387   16.4935 O.2     1  UNL1       -0.2701
     26 N          65.7546   91.1015   14.9920 N.am    1  UNL1       -0.2991
     27 H          66.2180   90.3678   14.5271 H       1  UNL1        0.1500
     28 C          66.2903   92.4999   14.9072 C.3     1  UNL1        0.0924
     29 C          66.9318   93.7911   15.3210 C.3     1  UNL1        0.0258
     30 C          66.7810   92.6766   16.3137 C.3     1  UNL1        0.0258
     31 C          65.9857   92.8090   13.4714 C.ar    1  UNL1        0.0749
     32 C          65.1718   91.8499   12.6541 C.ar    1  UNL1        0.0163
     33 C          64.8672   92.1590   11.2183 C.ar    1  UNL1        0.0029
     34 C          65.3765   93.4271   10.5996 C.ar    1  UNL1        0.0207
     35 C          66.1903   94.3860   11.4168 C.ar    1  UNL1        0.0985
     36 N          66.4949   94.0770   12.8527 N.ar    1  UNL1       -0.2466
     37 C          59.7227   88.4780    7.8297 C.3     1  UNL1        0.1109
     38 N          60.3927   87.2375    8.3419 N.am    1  UNL1       -0.2991
     39 C          61.6737   87.3418    9.1153 C.2     1  UNL1        0.2490
     40 O          62.2847   88.6865    9.3765 O.2     1  UNL1       -0.2700
     41 H          59.9916   86.3549    8.1705 H       1  UNL1        0.1498
@<TRIPOS>BOND
     1    37    38    1
     2    38    39   am
     3    39    40    2
     4    39     1    1
     5     1     2   ar
     6     2    10    1
     7    10    11   ar
     8    11    12   ar
     9    12    13   ar
    10    13    14    1
    11    13    15   ar
    12    15    16   ar
    13     2     3   ar
    14     3     4   ar
    15     4     5   ar
    16     5     6   ar
    17     6     7   ar
    18     7    17    1
    19    17    18   ar
    20    18    19   ar
    21    19    24    1
    22    24    25    2
    23    24    26   am
    24    26    28    1
    25    28    31    1
    26    31    32   ar
    27    32    33   ar
    28    33    34   ar
    29    34    35   ar
    30    35    36   ar
    31    28    29    1
    32    29    30    1
    33    19    20   ar
    34    20    21   ar
    35    21    22   ar
    36    22    23    1
    37     7     8   ar
    38     8     9   ar
    39     9     1   ar
    40    16    10   ar
    41     9     4   ar
    42    22    17   ar
    43    30    28    1
    44    36    31   ar
    45    38    41    1
    46    26    27    1
