@<TRIPOS>MOLECULE
*****
 33 36 0 0 0
SMALL
GASTEIGER

@<TRIPOS>ATOM
      1 C          63.2948   90.7148   13.4771 C.ar    1  UNL1        0.2019
      2 N          64.6323   91.3035   13.8150 N.ar    1  UNL1       -0.1961
      3 C          65.4469   91.9752   12.7496 C.ar    1  UNL1        0.1682
      4 C          64.9240   92.0582   11.3462 C.ar    1  UNL1        0.1125
      5 C          65.9441   92.7760   10.5130 C.ar    1  UNL1        0.1280
      6 N          67.0975   93.1366   11.4015 N.ar    1  UNL1       -0.1663
      7 N          66.7903   92.6417   12.7838 N.ar    1  UNL1       -0.2376
      8 C          63.5864   91.4695   11.0082 C.ar    1  UNL1        0.2676
      9 O          63.0633   91.5525    9.6047 O.2     1  UNL1       -0.2667
     10 N          62.7718   90.7978   12.0737 N.ar    1  UNL1       -0.2645
     11 C          67.6717   92.7877   13.9887 C.3     1  UNL1        0.0882
     12 C          66.7837   93.8803   14.5059 C.3     1  UNL1        0.0245
     13 C          68.5598   91.6950   13.4715 C.3     1  UNL1        0.0245
     14 C          68.5531   92.9336   15.1936 C.3     1  UNL1        0.0245
     15 N          62.4802   90.0431   14.5426 N.pl3   1  UNL1       -0.3021
     16 H          61.4975   90.0393   14.4820 H       1  UNL1        0.1498
     17 C          63.5407   90.1789   16.9106 C.3     1  UNL1        0.0262
     18 C          63.1628   89.3771   15.7004 C.3     1  UNL1        0.0943
     19 C          63.4677   87.9094   15.6480 C.ar    1  UNL1       -0.0045
     20 C          63.0219   87.0105   16.7632 C.ar    1  UNL1       -0.0018
     21 C          63.3268   85.5428   16.7108 C.ar    1  UNL1        0.0111
     22 C          64.0774   84.9739   15.5434 C.ar    1  UNL1        0.0577
     23 CL         64.3823   83.5061   15.4910 Cl      1  UNL1       -0.0822
     24 C          64.5231   85.8727   14.4283 C.ar    1  UNL1        0.0111
     25 C          64.2182   87.3404   14.4806 C.ar    1  UNL1       -0.0018
     26 C          61.4341   90.2090   11.7357 C.3     1  UNL1        0.1384
     27 C          61.3403   89.0666   10.7682 C.ar    1  UNL1        0.0007
     28 C          60.3869   89.1389    9.6125 C.ar    1  UNL1       -0.0001
     29 C          60.2931   87.9964    8.6450 C.ar    1  UNL1        0.0294
     30 C          61.1528   86.7817    8.8332 C.ar    1  UNL1        0.1401
     31 F          61.0591   85.6392    7.8657 F       1  UNL1       -0.2042
     32 C          62.1062   86.7095    9.9889 C.ar    1  UNL1        0.0294
     33 C          62.2000   87.8519   10.9564 C.ar    1  UNL1       -0.0001
@<TRIPOS>BOND
     1    18    17    1
     2    18    15    1
     3    15     1    1
     4     1     2   ar
     5     2     3   ar
     6     3     4   ar
     7     4     5   ar
     8     5     6   ar
     9     6     7   ar
    10     7    11    1
    11    11    12    1
    12    11    13    1
    13    11    14    1
    14     4     8   ar
    15     8     9    2
    16     8    10   ar
    17    10    26    1
    18    26    27    1
    19    27    28   ar
    20    28    29   ar
    21    29    30   ar
    22    30    31    1
    23    30    32   ar
    24    32    33   ar
    25    18    19    1
    26    19    20   ar
    27    20    21   ar
    28    21    22   ar
    29    22    23    1
    30    22    24   ar
    31    24    25   ar
    32    10     1   ar
    33    33    27   ar
    34    25    19   ar
    35     7     3   ar
    36    15    16    1
@<TRIPOS>MOLECULE
*****
 33 36 0 0 0
SMALL
GASTEIGER

@<TRIPOS>ATOM
      1 C          62.8419   88.0129   12.0877 C.ar    1  UNL1        0.2019
      2 N          62.9769   86.5223   12.1870 N.ar    1  UNL1       -0.1961
      3 C          63.6191   85.9062   13.3944 C.ar    1  UNL1        0.1682
      4 C          64.1263   86.7807   14.5026 C.ar    1  UNL1        0.1125
      5 C          64.7097   85.8941   15.5626 C.ar    1  UNL1        0.1280
      6 N          64.5632   84.4717   15.1095 N.ar    1  UNL1       -0.1663
      7 N          63.8891   84.4792   13.7695 N.ar    1  UNL1       -0.2376
      8 C          63.9913   88.2713   14.4033 C.ar    1  UNL1        0.2676
      9 O          64.4984   89.1458   15.5115 O.2     1  UNL1       -0.2667
     10 N          63.3490   88.8873   13.1958 N.ar    1  UNL1       -0.2645
     11 C          63.5454   83.2716   12.9488 C.3     1  UNL1        0.0882
     12 C          62.4479   82.9291   13.9123 C.3     1  UNL1        0.0245
     13 C          64.6428   83.6141   11.9853 C.3     1  UNL1        0.0245
     14 C          63.2017   82.0640   12.1280 C.3     1  UNL1        0.0245
     15 N          62.1996   88.6290   10.8801 N.pl3   1  UNL1       -0.3021
     16 H          62.5704   89.4546   10.4926 H       1  UNL1        0.1498
     17 C          59.6209   88.3356   10.7604 C.3     1  UNL1        0.0262
     18 C          60.9925   87.9871   10.2631 C.3     1  UNL1        0.0943
     19 C          61.1569   86.9967    9.1486 C.ar    1  UNL1       -0.0045
     20 C          62.4756   86.3123    8.9419 C.ar    1  UNL1       -0.0018
     21 C          62.6399   85.3219    7.8274 C.ar    1  UNL1        0.0111
     22 C          61.4857   85.0159    6.9197 C.ar    1  UNL1        0.0577
     23 CL         61.6501   84.0255    5.8051 Cl      1  UNL1       -0.0822
     24 C          60.1670   85.7003    7.1264 C.ar    1  UNL1        0.0111
     25 C          60.0026   86.6907    8.2408 C.ar    1  UNL1       -0.0018
     26 C          63.2140   90.3780   13.0965 C.3     1  UNL1        0.1384
     27 C          64.3097   91.1904   12.4723 C.ar    1  UNL1        0.0007
     28 C          64.1911   91.6394   11.0460 C.ar    1  UNL1       -0.0001
     29 C          65.2867   92.4517   10.4218 C.ar    1  UNL1        0.0294
     30 C          66.5010   92.8151   11.2239 C.ar    1  UNL1        0.1401
     31 F          67.5968   93.6275   10.5998 F       1  UNL1       -0.2042
     32 C          66.6197   92.3661   12.6502 C.ar    1  UNL1        0.0294
     33 C          65.5240   91.5538   13.2744 C.ar    1  UNL1       -0.0001
@<TRIPOS>BOND
     1    18    17    1
     2    18    15    1
     3    15     1    1
     4     1     2   ar
     5     2     3   ar
     6     3     4   ar
     7     4     5   ar
     8     5     6   ar
     9     6     7   ar
    10     7    11    1
    11    11    12    1
    12    11    13    1
    13    11    14    1
    14     4     8   ar
    15     8     9    2
    16     8    10   ar
    17    10    26    1
    18    26    27    1
    19    27    28   ar
    20    28    29   ar
    21    29    30   ar
    22    30    31    1
    23    30    32   ar
    24    32    33   ar
    25    18    19    1
    26    19    20   ar
    27    20    21   ar
    28    21    22   ar
    29    22    23    1
    30    22    24   ar
    31    24    25   ar
    32    10     1   ar
    33    33    27   ar
    34    25    19   ar
    35     7     3   ar
    36    15    16    1
@<TRIPOS>MOLECULE
*****
 33 36 0 0 0
SMALL
GASTEIGER

@<TRIPOS>ATOM
      1 C          62.9628   87.3560   12.8665 C.ar    1  UNL1        0.2019
      2 N          63.7990   88.4864   13.3890 N.ar    1  UNL1       -0.1961
      3 C          63.8892   89.7706   12.6192 C.ar    1  UNL1        0.1682
      4 C          63.1432   89.9246   11.3270 C.ar    1  UNL1        0.1125
      5 C          63.4214   91.2980   10.7919 C.ar    1  UNL1        0.1280
      6 N          64.3393   91.9929   11.7534 N.ar    1  UNL1       -0.1663
      7 N          64.6285   91.0489   12.8828 N.ar    1  UNL1       -0.2376
      8 C          62.3070   88.7942   10.8045 C.ar    1  UNL1        0.2676
      9 O          61.5610   88.9481    9.5123 O.2     1  UNL1       -0.2667
     10 N          62.2168   87.5099   11.5743 N.ar    1  UNL1       -0.2645
     11 C          65.5032   91.3334   14.0676 C.3     1  UNL1        0.0882
     12 C          66.6066   91.7674   13.1488 C.3     1  UNL1        0.0245
     13 C          64.3999   90.8994   14.9864 C.3     1  UNL1        0.0245
     14 C          66.3780   91.6179   15.2524 C.3     1  UNL1        0.0245
     15 N          62.8726   86.0717   13.6363 N.pl3   1  UNL1       -0.3021
     16 H          62.1081   85.9093   14.2350 H       1  UNL1        0.1498
     17 C          65.2528   85.2042   14.2128 C.3     1  UNL1        0.0262
     18 C          63.9472   85.0350   13.4938 C.3     1  UNL1        0.0943
     19 C          63.7163   83.8289   12.6324 C.ar    1  UNL1       -0.0045
     20 C          64.5620   83.6045   11.4139 C.ar    1  UNL1       -0.0018
     21 C          64.3310   82.3984   10.5526 C.ar    1  UNL1        0.0111
     22 C          63.2545   81.4168   10.9095 C.ar    1  UNL1        0.0577
     23 CL         63.0236   80.2106   10.0480 Cl      1  UNL1       -0.0822
     24 C          62.4088   81.6412   12.1279 C.ar    1  UNL1        0.0111
     25 C          62.6397   82.8472   12.9893 C.ar    1  UNL1       -0.0018
     26 C          61.3805   86.3795   11.0518 C.3     1  UNL1        0.1384
     27 C          61.5465   85.9164    9.6348 C.ar    1  UNL1        0.0007
     28 C          60.4059   86.0362    8.6681 C.ar    1  UNL1       -0.0001
     29 C          60.5719   85.5732    7.2510 C.ar    1  UNL1        0.0294
     30 C          61.8785   84.9903    6.8007 C.ar    1  UNL1        0.1401
     31 F          62.0446   84.5272    5.3836 F       1  UNL1       -0.2042
     32 C          63.0192   84.8705    7.7673 C.ar    1  UNL1        0.0294
     33 C          62.8532   85.3335    9.1844 C.ar    1  UNL1       -0.0001
@<TRIPOS>BOND
     1    18    17    1
     2    18    15    1
     3    15     1    1
     4     1     2   ar
     5     2     3   ar
     6     3     4   ar
     7     4     5   ar
     8     5     6   ar
     9     6     7   ar
    10     7    11    1
    11    11    12    1
    12    11    13    1
    13    11    14    1
    14     4     8   ar
    15     8     9    2
    16     8    10   ar
    17    10    26    1
    18    26    27    1
    19    27    28   ar
    20    28    29   ar
    21    29    30   ar
    22    30    31    1
    23    30    32   ar
    24    32    33   ar
    25    18    19    1
    26    19    20   ar
    27    20    21   ar
    28    21    22   ar
    29    22    23    1
    30    22    24   ar
    31    24    25   ar
    32    10     1   ar
    33    33    27   ar
    34    25    19   ar
    35     7     3   ar
    36    15    16    1
@<TRIPOS>MOLECULE
*****
 33 36 0 0 0
SMALL
GASTEIGER

@<TRIPOS>ATOM
      1 C          63.7652   88.3971   14.1049 C.ar    1  UNL1        0.2019
      2 N          63.3843   87.4497   13.0062 N.ar    1  UNL1       -0.1961
      3 C          62.8633   87.9819   11.7041 C.ar    1  UNL1        0.1682
      4 C          62.7234   89.4614   11.5007 C.ar    1  UNL1        0.1125
      5 C          62.1849   89.6907   10.1196 C.ar    1  UNL1        0.1280
      6 N          61.9920   88.3528    9.4694 N.ar    1  UNL1       -0.1663
      7 N          62.4113   87.2967   10.4486 N.ar    1  UNL1       -0.2376
      8 C          63.1043   90.4088   12.5995 C.ar    1  UNL1        0.2676
      9 O          62.9644   91.8884   12.3962 O.2     1  UNL1       -0.2667
     10 N          63.6253   89.8766   13.9016 N.ar    1  UNL1       -0.2645
     11 C          62.3835   85.8155   10.2136 C.3     1  UNL1        0.0882
     12 C          61.9819   85.5963   11.6421 C.3     1  UNL1        0.0245
     13 C          62.7852   86.0346    8.7851 C.3     1  UNL1        0.0245
     14 C          62.3557   84.3343    9.9786 C.3     1  UNL1        0.0245
     15 N          64.2862   87.8649   15.4070 N.pl3   1  UNL1       -0.3021
     16 H          65.0776   88.2749   15.8251 H       1  UNL1        0.1498
     17 C          62.9098   86.9019   17.3891 C.3     1  UNL1        0.0262
     18 C          63.6012   86.7080   16.0721 C.3     1  UNL1        0.0943
     19 C          63.6076   85.3571   15.4202 C.ar    1  UNL1       -0.0045
     20 C          62.4347   84.4372   15.5891 C.ar    1  UNL1       -0.0018
     21 C          62.4412   83.0863   14.9372 C.ar    1  UNL1        0.0111
     22 C          63.6204   82.6552   14.1165 C.ar    1  UNL1        0.0577
     23 CL         63.6268   81.3043   13.4645 Cl      1  UNL1       -0.0822
     24 C          64.7931   83.5750   13.9476 C.ar    1  UNL1        0.0111
     25 C          64.7868   84.9259   14.5994 C.ar    1  UNL1       -0.0018
     26 C          64.0063   90.8240   15.0004 C.3     1  UNL1        0.1384
     27 C          65.3647   91.4601   15.0048 C.ar    1  UNL1        0.0007
     28 C          65.7915   92.3093   16.1653 C.ar    1  UNL1       -0.0001
     29 C          67.1500   92.9454   16.1697 C.ar    1  UNL1        0.0294
     30 C          68.0817   92.7323   15.0136 C.ar    1  UNL1        0.1401
     31 F          69.4402   93.3683   15.0179 F       1  UNL1       -0.2042
     32 C          67.6549   91.8831   13.8531 C.ar    1  UNL1        0.0294
     33 C          66.2964   91.2470   13.8487 C.ar    1  UNL1       -0.0001
@<TRIPOS>BOND
     1    18    17    1
     2    18    15    1
     3    15     1    1
     4     1     2   ar
     5     2     3   ar
     6     3     4   ar
     7     4     5   ar
     8     5     6   ar
     9     6     7   ar
    10     7    11    1
    11    11    12    1
    12    11    13    1
    13    11    14    1
    14     4     8   ar
    15     8     9    2
    16     8    10   ar
    17    10    26    1
    18    26    27    1
    19    27    28   ar
    20    28    29   ar
    21    29    30   ar
    22    30    31    1
    23    30    32   ar
    24    32    33   ar
    25    18    19    1
    26    19    20   ar
    27    20    21   ar
    28    21    22   ar
    29    22    23    1
    30    22    24   ar
    31    24    25   ar
    32    10     1   ar
    33    33    27   ar
    34    25    19   ar
    35     7     3   ar
    36    15    16    1
@<TRIPOS>MOLECULE
*****
 33 36 0 0 0
SMALL
GASTEIGER

@<TRIPOS>ATOM
      1 C          63.0288   87.7772   12.3382 C.ar    1  UNL1        0.2019
      2 N          63.1176   86.2802   12.3064 N.ar    1  UNL1       -0.1961
      3 C          63.5544   85.5287   13.5289 C.ar    1  UNL1        0.1682
      4 C          63.9025   86.2743   14.7831 C.ar    1  UNL1        0.1125
      5 C          64.2987   85.2701   15.8245 C.ar    1  UNL1        0.1280
      6 N          64.1955   83.9039   15.2139 N.ar    1  UNL1       -0.1663
      7 N          63.7355   84.0637   13.7952 N.ar    1  UNL1       -0.2376
      8 C          63.8138   87.7713   14.8148 C.ar    1  UNL1        0.2676
      9 O          64.1618   88.5169   16.0690 O.2     1  UNL1       -0.2667
     10 N          63.3769   88.5228   13.5923 N.ar    1  UNL1       -0.2645
     11 C          63.4982   82.9535   12.8148 C.3     1  UNL1        0.0882
     12 C          64.6322   83.4560   11.9713 C.3     1  UNL1        0.0245
     13 C          62.3643   82.4509   13.6584 C.3     1  UNL1        0.0245
     14 C          63.2610   81.8432   11.8345 C.3     1  UNL1        0.0245
     15 N          62.5919   88.5287   11.1156 N.pl3   1  UNL1       -0.3021
     16 H          63.1381   89.2732   10.7740 H       1  UNL1        0.1498
     17 C          60.0214   88.7689   10.8236 C.3     1  UNL1        0.0262
     18 C          61.3229   88.1457   10.4136 C.3     1  UNL1        0.0943
     19 C          61.3552   87.1396    9.3015 C.ar    1  UNL1       -0.0045
     20 C          60.1198   86.8759    8.4926 C.ar    1  UNL1       -0.0018
     21 C          60.1522   85.8698    7.3805 C.ar    1  UNL1        0.0111
     22 C          61.4198   85.1274    7.0774 C.ar    1  UNL1        0.0577
     23 CL         61.4522   84.1213    5.9653 Cl      1  UNL1       -0.0822
     24 C          62.6552   85.3911    7.8863 C.ar    1  UNL1        0.0111
     25 C          62.6229   86.3973    8.9984 C.ar    1  UNL1       -0.0018
     26 C          63.2881   90.0199   13.6240 C.3     1  UNL1        0.1384
     27 C          64.3611   90.8206   14.3004 C.ar    1  UNL1        0.0007
     28 C          64.1152   91.4079   15.6586 C.ar    1  UNL1       -0.0001
     29 C          65.1882   92.2086   16.3349 C.ar    1  UNL1        0.0294
     30 C          66.5071   92.4222   15.6531 C.ar    1  UNL1        0.1401
     31 F          67.5801   93.2230   16.3294 F       1  UNL1       -0.2042
     32 C          66.7530   91.8350   14.2949 C.ar    1  UNL1        0.0294
     33 C          65.6800   91.0342   13.6185 C.ar    1  UNL1       -0.0001
@<TRIPOS>BOND
     1    18    17    1
     2    18    15    1
     3    15     1    1
     4     1     2   ar
     5     2     3   ar
     6     3     4   ar
     7     4     5   ar
     8     5     6   ar
     9     6     7   ar
    10     7    11    1
    11    11    12    1
    12    11    13    1
    13    11    14    1
    14     4     8   ar
    15     8     9    2
    16     8    10   ar
    17    10    26    1
    18    26    27    1
    19    27    28   ar
    20    28    29   ar
    21    29    30   ar
    22    30    31    1
    23    30    32   ar
    24    32    33   ar
    25    18    19    1
    26    19    20   ar
    27    20    21   ar
    28    21    22   ar
    29    22    23    1
    30    22    24   ar
    31    24    25   ar
    32    10     1   ar
    33    33    27   ar
    34    25    19   ar
    35     7     3   ar
    36    15    16    1
@<TRIPOS>MOLECULE
*****
 33 36 0 0 0
SMALL
GASTEIGER

@<TRIPOS>ATOM
      1 C          63.8296   90.4173   13.1464 C.ar    1  UNL1        0.2019
      2 N          64.6334   91.2949   12.2334 N.ar    1  UNL1       -0.1961
      3 C          65.5514   92.3330   12.8074 C.ar    1  UNL1        0.1682
      4 C          65.6656   92.4936   14.2944 C.ar    1  UNL1        0.1125
      5 C          66.6463   93.5952   14.5677 C.ar    1  UNL1        0.1280
      6 N          67.1383   94.1154   13.2497 N.ar    1  UNL1       -0.1663
      7 N          66.4616   93.3354   12.1617 N.ar    1  UNL1       -0.2376
      8 C          64.8618   91.6160   15.2074 C.ar    1  UNL1        0.2676
      9 O          64.9759   91.7766   16.6945 O.2     1  UNL1       -0.2667
     10 N          63.9437   90.5778   14.6333 N.ar    1  UNL1       -0.2645
     11 C          66.6603   93.5245   10.6870 C.3     1  UNL1        0.0882
     12 C          67.5691   92.3315   10.6564 C.3     1  UNL1        0.0245
     13 C          65.7515   94.7174   10.7175 C.3     1  UNL1        0.0245
     14 C          66.8590   93.7136    9.2123 C.3     1  UNL1        0.0245
     15 N          62.9115   89.3791   12.5724 N.pl3   1  UNL1       -0.3021
     16 H          62.9309   88.4583   12.9203 H       1  UNL1        0.1498
     17 C          61.4530   91.1494   11.3521 C.3     1  UNL1        0.0262
     18 C          61.9641   89.7439   11.4682 C.3     1  UNL1        0.0943
     19 C          61.5277   88.7032   10.4800 C.ar    1  UNL1       -0.0045
     20 C          62.2140   87.3698   10.4426 C.ar    1  UNL1       -0.0018
     21 C          61.7775   86.3292    9.4544 C.ar    1  UNL1        0.0111
     22 C          60.6549   86.6218    8.5036 C.ar    1  UNL1        0.0577
     23 CL         60.2184   85.5811    7.5154 Cl      1  UNL1       -0.0822
     24 C          59.9687   87.9551    8.5410 C.ar    1  UNL1        0.0111
     25 C          60.4051   88.9958    9.5292 C.ar    1  UNL1       -0.0018
     26 C          63.1398   89.7002   15.5464 C.3     1  UNL1        0.1384
     27 C          63.4610   88.2392   15.6570 C.ar    1  UNL1        0.0007
     28 C          62.8601   87.4206   16.7610 C.ar    1  UNL1       -0.0001
     29 C          63.1812   85.9596   16.8716 C.ar    1  UNL1        0.0294
     30 C          64.1034   85.3171   15.8782 C.ar    1  UNL1        0.1401
     31 F          64.4246   83.8560   15.9887 F       1  UNL1       -0.2042
     32 C          64.7043   86.1356   14.7742 C.ar    1  UNL1        0.0294
     33 C          64.3831   87.5967   14.6636 C.ar    1  UNL1       -0.0001
@<TRIPOS>BOND
     1    18    17    1
     2    18    15    1
     3    15     1    1
     4     1     2   ar
     5     2     3   ar
     6     3     4   ar
     7     4     5   ar
     8     5     6   ar
     9     6     7   ar
    10     7    11    1
    11    11    12    1
    12    11    13    1
    13    11    14    1
    14     4     8   ar
    15     8     9    2
    16     8    10   ar
    17    10    26    1
    18    26    27    1
    19    27    28   ar
    20    28    29   ar
    21    29    30   ar
    22    30    31    1
    23    30    32   ar
    24    32    33   ar
    25    18    19    1
    26    19    20   ar
    27    20    21   ar
    28    21    22   ar
    29    22    23    1
    30    22    24   ar
    31    24    25   ar
    32    10     1   ar
    33    33    27   ar
    34    25    19   ar
    35     7     3   ar
    36    15    16    1
@<TRIPOS>MOLECULE
*****
 33 36 0 0 0
SMALL
GASTEIGER

@<TRIPOS>ATOM
      1 C          62.7553   89.4544   11.9913 C.ar    1  UNL1        0.2019
      2 N          61.8361   89.3070   10.8152 N.ar    1  UNL1       -0.1961
      3 C          61.5241   87.9435   10.2734 C.ar    1  UNL1        0.1682
      4 C          62.1315   86.7275   10.9077 C.ar    1  UNL1        0.1125
      5 C          61.6431   85.5220   10.1604 C.ar    1  UNL1        0.1280
      6 N          60.7340   85.9931    9.0643 N.ar    1  UNL1       -0.1663
      7 N          60.6604   87.4897    9.1341 N.ar    1  UNL1       -0.2376
      8 C          63.0507   86.8749   12.0838 C.ar    1  UNL1        0.2676
      9 O          63.6581   85.6588   12.7181 O.2     1  UNL1       -0.2667
     10 N          63.3626   88.2385   12.6255 N.ar    1  UNL1       -0.2645
     11 C          59.8631   88.3766    8.2243 C.3     1  UNL1        0.0882
     12 C          60.4565   89.5862    8.8836 C.3     1  UNL1        0.0245
     13 C          59.2698   87.1669    7.5650 C.3     1  UNL1        0.0245
     14 C          59.0658   89.2635    7.3146 C.3     1  UNL1        0.0245
     15 N          63.0672   90.8180   12.5331 N.pl3   1  UNL1       -0.3021
     16 H          62.4454   91.2524   13.1607 H       1  UNL1        0.1498
     17 C          64.4962   91.9817   10.7015 C.3     1  UNL1        0.0262
     18 C          64.3265   91.5197   12.1185 C.3     1  UNL1        0.0943
     19 C          65.4163   91.7593   13.1210 C.ar    1  UNL1       -0.0045
     20 C          66.8305   91.9529   12.6596 C.ar    1  UNL1       -0.0018
     21 C          67.9202   92.1925   13.6622 C.ar    1  UNL1        0.0111
     22 C          67.5959   92.2386   15.1259 C.ar    1  UNL1        0.0577
     23 CL         68.6856   92.4783   16.1284 Cl      1  UNL1       -0.0822
     24 C          66.1818   92.0451   15.5872 C.ar    1  UNL1        0.0111
     25 C          65.0920   91.8054   14.5848 C.ar    1  UNL1       -0.0018
     26 C          64.2820   88.3859   13.8017 C.3     1  UNL1        0.1384
     27 C          63.8334   87.9464   15.1639 C.ar    1  UNL1        0.0007
     28 C          63.8696   86.4929   15.5328 C.ar    1  UNL1       -0.0001
     29 C          63.4211   86.0534   16.8950 C.ar    1  UNL1        0.0294
     30 C          62.9363   87.0674   17.8884 C.ar    1  UNL1        0.1401
     31 F          62.4878   86.6280   19.2507 F       1  UNL1       -0.2042
     32 C          62.9001   88.5209   17.5196 C.ar    1  UNL1        0.0294
     33 C          63.3487   88.9604   16.1573 C.ar    1  UNL1       -0.0001
@<TRIPOS>BOND
     1    18    17    1
     2    18    15    1
     3    15     1    1
     4     1     2   ar
     5     2     3   ar
     6     3     4   ar
     7     4     5   ar
     8     5     6   ar
     9     6     7   ar
    10     7    11    1
    11    11    12    1
    12    11    13    1
    13    11    14    1
    14     4     8   ar
    15     8     9    2
    16     8    10   ar
    17    10    26    1
    18    26    27    1
    19    27    28   ar
    20    28    29   ar
    21    29    30   ar
    22    30    31    1
    23    30    32   ar
    24    32    33   ar
    25    18    19    1
    26    19    20   ar
    27    20    21   ar
    28    21    22   ar
    29    22    23    1
    30    22    24   ar
    31    24    25   ar
    32    10     1   ar
    33    33    27   ar
    34    25    19   ar
    35     7     3   ar
    36    15    16    1
@<TRIPOS>MOLECULE
*****
 33 36 0 0 0
SMALL
GASTEIGER

@<TRIPOS>ATOM
      1 C          63.3347   89.0966   13.1225 C.ar    1  UNL1        0.2019
      2 N          64.5360   89.8960   13.5322 N.ar    1  UNL1       -0.1961
      3 C          64.9427   91.1002   12.7358 C.ar    1  UNL1        0.1682
      4 C          64.1482   91.5051   11.5297 C.ar    1  UNL1        0.1125
      5 C          64.7855   92.7304   10.9446 C.ar    1  UNL1        0.1280
      6 N          65.9740   93.0829   11.7892 N.ar    1  UNL1       -0.1663
      7 N          66.0712   92.0754   12.8962 N.ar    1  UNL1       -0.2376
      8 C          62.9469   90.7057   11.1199 C.ar    1  UNL1        0.2676
      9 O          62.1523   91.1105    9.9138 O.2     1  UNL1       -0.2667
     10 N          62.5402   89.5014   11.9164 N.ar    1  UNL1       -0.2645
     11 C          67.1137   92.0478   13.9743 C.3     1  UNL1        0.0882
     12 C          66.0842   92.4689   14.9807 C.3     1  UNL1        0.0245
     13 C          68.1433   91.6268   12.9679 C.3     1  UNL1        0.0245
     14 C          68.1563   92.0203   15.0524 C.3     1  UNL1        0.0245
     15 N          62.9280   87.8922   13.9190 N.pl3   1  UNL1       -0.3021
     16 H          62.0222   87.8374   14.3006 H       1  UNL1        0.1498
     17 C          65.0738   86.9617   15.0504 C.3     1  UNL1        0.0262
     18 C          63.9016   86.7716   14.1339 C.3     1  UNL1        0.0943
     19 C          63.7030   85.4607   13.4325 C.ar    1  UNL1       -0.0045
     20 C          62.6935   85.3459   12.3289 C.ar    1  UNL1       -0.0018
     21 C          62.4950   84.0349   11.6275 C.ar    1  UNL1        0.0111
     22 C          63.3058   82.8388   12.0296 C.ar    1  UNL1        0.0577
     23 CL         63.1073   81.5278   11.3281 Cl      1  UNL1       -0.0822
     24 C          64.3153   82.9536   13.1331 C.ar    1  UNL1        0.0111
     25 C          64.5139   84.2645   13.8346 C.ar    1  UNL1       -0.0018
     26 C          61.3389   88.7019   11.5067 C.3     1  UNL1        0.1384
     27 C          61.4250   87.7635   10.3397 C.ar    1  UNL1        0.0007
     28 C          60.1718   87.2815    9.6708 C.ar    1  UNL1       -0.0001
     29 C          60.2579   86.3430    8.5038 C.ar    1  UNL1        0.0294
     30 C          61.5971   85.8865    8.0057 C.ar    1  UNL1        0.1401
     31 F          61.6833   84.9480    6.8387 F       1  UNL1       -0.2042
     32 C          62.8502   86.3685    8.6745 C.ar    1  UNL1        0.0294
     33 C          62.7641   87.3069    9.8415 C.ar    1  UNL1       -0.0001
@<TRIPOS>BOND
     1    18    17    1
     2    18    15    1
     3    15     1    1
     4     1     2   ar
     5     2     3   ar
     6     3     4   ar
     7     4     5   ar
     8     5     6   ar
     9     6     7   ar
    10     7    11    1
    11    11    12    1
    12    11    13    1
    13    11    14    1
    14     4     8   ar
    15     8     9    2
    16     8    10   ar
    17    10    26    1
    18    26    27    1
    19    27    28   ar
    20    28    29   ar
    21    29    30   ar
    22    30    31    1
    23    30    32   ar
    24    32    33   ar
    25    18    19    1
    26    19    20   ar
    27    20    21   ar
    28    21    22   ar
    29    22    23    1
    30    22    24   ar
    31    24    25   ar
    32    10     1   ar
    33    33    27   ar
    34    25    19   ar
    35     7     3   ar
    36    15    16    1
@<TRIPOS>MOLECULE
*****
 33 36 0 0 0
SMALL
GASTEIGER

@<TRIPOS>ATOM
      1 C          63.4737   87.3607   13.1430 C.ar    1  UNL1        0.2019
      2 N          62.7741   87.0240   11.8595 N.ar    1  UNL1       -0.1961
      3 C          62.1642   88.1144   11.0294 C.ar    1  UNL1        0.1682
      4 C          62.2538   89.5414   11.4828 C.ar    1  UNL1        0.1125
      5 C          61.5625   90.3963   10.4624 C.ar    1  UNL1        0.1280
      6 N          61.0456   89.4975    9.3784 N.ar    1  UNL1       -0.1663
      7 N          61.4174   88.0872    9.7288 N.ar    1  UNL1       -0.2376
      8 C          62.9534   89.8781   12.7662 C.ar    1  UNL1        0.2676
      9 O          63.0431   91.3052   13.2196 O.2     1  UNL1       -0.2667
     10 N          63.5633   88.7876   13.5963 N.ar    1  UNL1       -0.2645
     11 C          61.0985   86.8645    8.9206 C.3     1  UNL1        0.0882
     12 C          59.6493   87.2512    8.9074 C.3     1  UNL1        0.0245
     13 C          62.5478   86.4778    8.9337 C.3     1  UNL1        0.0245
     14 C          60.7796   85.6418    8.1123 C.3     1  UNL1        0.0245
     15 N          64.0837   86.2702   13.9731 N.pl3   1  UNL1       -0.3021
     16 H          64.9984   86.3710   14.3228 H       1  UNL1        0.1498
     17 C          62.5541   84.9012   15.5657 C.3     1  UNL1        0.0262
     18 C          63.2998   85.0264   14.2702 C.3     1  UNL1        0.0943
     19 C          63.2616   83.9075   13.2719 C.ar    1  UNL1       -0.0045
     20 C          64.0920   83.9861   12.0251 C.ar    1  UNL1       -0.0018
     21 C          64.0537   82.8672   11.0268 C.ar    1  UNL1        0.0111
     22 C          63.1852   81.6699   11.2751 C.ar    1  UNL1        0.0577
     23 CL         63.1469   80.5510   10.2768 Cl      1  UNL1       -0.0822
     24 C          62.3548   81.5913   12.5218 C.ar    1  UNL1        0.0111
     25 C          62.3930   82.7101   13.5202 C.ar    1  UNL1       -0.0018
     26 C          64.2630   89.1243   14.8798 C.3     1  UNL1        0.1384
     27 C          65.0679   90.3855   14.9867 C.ar    1  UNL1        0.0007
     28 C          64.7177   91.4133   16.0216 C.ar    1  UNL1       -0.0001
     29 C          65.5226   92.6746   16.1285 C.ar    1  UNL1        0.0294
     30 C          66.6778   92.9080   15.2006 C.ar    1  UNL1        0.1401
     31 F          67.4828   94.1692   15.3075 F       1  UNL1       -0.2042
     32 C          67.0280   91.8802   14.1657 C.ar    1  UNL1        0.0294
     33 C          66.2231   90.6189   14.0588 C.ar    1  UNL1       -0.0001
@<TRIPOS>BOND
     1    18    17    1
     2    18    15    1
     3    15     1    1
     4     1     2   ar
     5     2     3   ar
     6     3     4   ar
     7     4     5   ar
     8     5     6   ar
     9     6     7   ar
    10     7    11    1
    11    11    12    1
    12    11    13    1
    13    11    14    1
    14     4     8   ar
    15     8     9    2
    16     8    10   ar
    17    10    26    1
    18    26    27    1
    19    27    28   ar
    20    28    29   ar
    21    29    30   ar
    22    30    31    1
    23    30    32   ar
    24    32    33   ar
    25    18    19    1
    26    19    20   ar
    27    20    21   ar
    28    21    22   ar
    29    22    23    1
    30    22    24   ar
    31    24    25   ar
    32    10     1   ar
    33    33    27   ar
    34    25    19   ar
    35     7     3   ar
    36    15    16    1
