@<TRIPOS>MOLECULE
*****
 35 39 0 0 0
SMALL
GASTEIGER

@<TRIPOS>ATOM
      1 C          62.6896   86.8394   11.8338 C.2     1  UNL1        0.2506
      2 O          63.4697   87.4939   12.9352 O.2     1  UNL1       -0.2699
      3 N          61.6705   87.6278   11.0658 N.am    1  UNL1       -0.2723
      4 C          60.8904   86.9733    9.9643 C.3     1  UNL1        0.1257
      5 C          59.8713   87.7617    9.1962 C.3     1  UNL1        0.1637
      6 O          59.6323   89.2045    9.5296 O.3     1  UNL1       -0.3502
      7 C          60.4124   89.8590   10.6309 C.3     1  UNL1        0.1622
      8 C          61.4316   89.0706   11.3991 C.3     1  UNL1        0.1097
      9 C          63.6455   81.0681   10.5006 C.3     1  UNL1        0.0307
     10 C          63.4065   82.5109   10.8339 C.ar    1  UNL1       -0.0243
     11 C          63.2157   83.5131    9.7342 C.ar    1  UNL1       -0.0043
     12 C          62.9767   84.9559   10.0675 C.ar    1  UNL1        0.0057
     13 C          62.9286   85.3966   11.5005 C.ar    1  UNL1        0.0726
     14 C          63.1193   84.3945   12.6001 C.ar    1  UNL1        0.1029
     15 C          63.3583   82.9516   12.2668 C.ar    1  UNL1       -0.0062
     16 C          63.5491   81.9495   13.3666 C.3     1  UNL1        0.0323
     17 N          63.0712   84.8351   14.0332 N.ar    1  UNL1       -0.1480
     18 N          61.8743   84.7723   14.9352 N.ar    1  UNL1       -0.1447
     19 C          62.2747   85.3143   16.2753 C.ar    1  UNL1        0.1446
     20 C          63.7192   85.7122   16.2015 C.ar    1  UNL1        0.1446
     21 N          64.2114   85.4160   14.8158 N.ar    1  UNL1       -0.1447
     22 C          62.2116   89.7251   12.5004 C.3     1  UNL1        0.0510
     23 C          63.3604   90.6313   12.1698 C.ar    1  UNL1        0.0071
     24 C          64.3782   90.9656   13.2197 C.ar    1  UNL1        0.0011
     25 C          65.5269   91.8717   12.8890 C.ar    1  UNL1        0.0356
     26 C          65.6579   92.4435   11.5085 C.ar    1  UNL1        0.0053
     27 C          64.6401   92.1092   10.4586 C.ar    1  UNL1        0.0294
     28 C          63.4913   91.2030   10.7893 C.ar    1  UNL1        0.1362
     29 F          62.4735   90.8687    9.7393 F       1  UNL1       -0.2045
     30 C          66.5447   92.2060   13.9390 C.ar    1  UNL1        0.1622
     31 N          66.1050   92.5053   15.3415 N.ar    1  UNL1       -0.2250
     32 C          67.1228   92.8396   16.3914 C.ar    1  UNL1        0.1022
     33 C          68.5804   92.8746   16.0388 C.ar    1  UNL1        0.0414
     34 C          69.0201   92.5754   14.6362 C.ar    1  UNL1        0.1022
     35 N          68.0023   92.2411   13.5864 N.ar    1  UNL1       -0.2250
@<TRIPOS>BOND
     1     9    10    1
     2    10    11   ar
     3    11    12   ar
     4    12    13   ar
     5    13     1    1
     6     1     2    2
     7     1     3   am
     8     3     4    1
     9     4     5    1
    10     5     6    1
    11     6     7    1
    12     7     8    1
    13     8    22    1
    14    22    23    1
    15    23    24   ar
    16    24    25   ar
    17    25    30    1
    18    30    31   ar
    19    31    32   ar
    20    32    33   ar
    21    33    34   ar
    22    34    35   ar
    23    25    26   ar
    24    26    27   ar
    25    27    28   ar
    26    28    29    1
    27    13    14   ar
    28    14    17    1
    29    17    18   ar
    30    18    19   ar
    31    19    20   ar
    32    20    21   ar
    33    14    15   ar
    34    15    16    1
    35    15    10   ar
    36     8     3    1
    37    28    23   ar
    38    21    17   ar
    39    35    30   ar
@<TRIPOS>MOLECULE
*****
 35 39 0 0 0
SMALL
GASTEIGER

@<TRIPOS>ATOM
      1 C          62.9768   87.0678   12.2630 C.2     1  UNL1        0.2506
      2 O          63.5188   87.4776   13.6002 O.2     1  UNL1       -0.2699
      3 N          62.3142   88.0828   11.3793 N.am    1  UNL1       -0.2723
      4 C          61.7722   87.6731   10.0420 C.3     1  UNL1        0.1257
      5 C          61.1096   88.6881    9.1584 C.3     1  UNL1        0.1637
      6 O          60.9891   90.1127    9.6120 O.3     1  UNL1       -0.3502
      7 C          61.5311   90.5225   10.9493 C.3     1  UNL1        0.1622
      8 C          62.1937   89.5075   11.8330 C.3     1  UNL1        0.1097
      9 C          63.4590   81.3692   10.4484 C.3     1  UNL1        0.0307
     10 C          63.3384   82.7938   10.9021 C.ar    1  UNL1       -0.0243
     11 C          63.2465   83.8978    9.8907 C.ar    1  UNL1       -0.0043
     12 C          63.1259   85.3224   10.3443 C.ar    1  UNL1        0.0057
     13 C          63.0973   85.6432   11.8093 C.ar    1  UNL1        0.0726
     14 C          63.1893   84.5393   12.8207 C.ar    1  UNL1        0.1029
     15 C          63.3098   83.1146   12.3670 C.ar    1  UNL1       -0.0062
     16 C          63.4018   82.0107   13.3785 C.3     1  UNL1        0.0323
     17 N          63.1607   84.8600   14.2858 N.ar    1  UNL1       -0.1480
     18 N          64.3434   85.2318   15.1302 N.ar    1  UNL1       -0.1447
     19 C          63.8581   85.4668   16.5299 C.ar    1  UNL1        0.1446
     20 C          62.3754   85.2403   16.5506 C.ar    1  UNL1        0.1446
     21 N          61.9444   84.8652   15.1636 N.ar    1  UNL1       -0.1447
     22 C          62.7357   89.9172   13.1703 C.3     1  UNL1        0.0510
     23 C          64.0454   90.6431   13.2583 C.ar    1  UNL1        0.0071
     24 C          64.5183   91.4793   12.1063 C.ar    1  UNL1        0.0011
     25 C          65.8280   92.2051   12.1944 C.ar    1  UNL1        0.0356
     26 C          66.6648   92.0949   13.4344 C.ar    1  UNL1        0.0053
     27 C          66.1918   91.2587   14.5863 C.ar    1  UNL1        0.0294
     28 C          64.8821   90.5328   14.4983 C.ar    1  UNL1        0.1362
     29 F          64.4092   89.6966   15.6504 F       1  UNL1       -0.2045
     30 C          66.3010   93.0414   11.0423 C.ar    1  UNL1        0.1622
     31 N          65.6793   94.3816   10.7834 N.ar    1  UNL1       -0.2250
     32 C          66.1523   95.2178    9.6313 C.ar    1  UNL1        0.1022
     33 C          67.2469   94.7137    8.7383 C.ar    1  UNL1        0.0414
     34 C          67.8686   93.3733    8.9972 C.ar    1  UNL1        0.1022
     35 N          67.3956   92.5372   10.1492 N.ar    1  UNL1       -0.2250
@<TRIPOS>BOND
     1     9    10    1
     2    10    11   ar
     3    11    12   ar
     4    12    13   ar
     5    13     1    1
     6     1     2    2
     7     1     3   am
     8     3     4    1
     9     4     5    1
    10     5     6    1
    11     6     7    1
    12     7     8    1
    13     8    22    1
    14    22    23    1
    15    23    24   ar
    16    24    25   ar
    17    25    30    1
    18    30    31   ar
    19    31    32   ar
    20    32    33   ar
    21    33    34   ar
    22    34    35   ar
    23    25    26   ar
    24    26    27   ar
    25    27    28   ar
    26    28    29    1
    27    13    14   ar
    28    14    17    1
    29    17    18   ar
    30    18    19   ar
    31    19    20   ar
    32    20    21   ar
    33    14    15   ar
    34    15    16    1
    35    15    10   ar
    36     8     3    1
    37    28    23   ar
    38    21    17   ar
    39    35    30   ar
@<TRIPOS>MOLECULE
*****
 35 39 0 0 0
SMALL
GASTEIGER

@<TRIPOS>ATOM
      1 C          62.6898   88.6782   11.7257 C.2     1  UNL1        0.2506
      2 O          62.5062   90.1669   11.7180 O.2     1  UNL1       -0.2699
      3 N          63.3830   88.0140   12.8782 N.am    1  UNL1       -0.2723
      4 C          63.5666   86.5253   12.8860 C.3     1  UNL1        0.1257
      5 C          64.2598   85.8611   14.0385 C.3     1  UNL1        0.1637
      6 O          64.7695   86.6856   15.1832 O.3     1  UNL1       -0.3502
      7 C          64.5859   88.1743   15.1755 C.3     1  UNL1        0.1622
      8 C          63.8926   88.8385   14.0230 C.3     1  UNL1        0.1097
      9 C          60.6512   85.3802    7.1467 C.3     1  UNL1        0.0307
     10 C          61.1608   86.2047    8.2915 C.ar    1  UNL1       -0.0243
     11 C          62.5846   86.0637    8.7419 C.ar    1  UNL1       -0.0043
     12 C          63.0942   86.8882    9.8866 C.ar    1  UNL1        0.0057
     13 C          62.1801   87.8537   10.5810 C.ar    1  UNL1        0.0726
     14 C          60.7563   87.9947   10.1305 C.ar    1  UNL1        0.1029
     15 C          60.2467   87.1702    8.9858 C.ar    1  UNL1       -0.0062
     16 C          58.8228   87.3113    8.5353 C.3     1  UNL1        0.0323
     17 N          59.8421   88.9603   10.8249 N.ar    1  UNL1       -0.1480
     18 N          59.6107   90.3904   10.4361 N.ar    1  UNL1       -0.1447
     19 C          58.6244   90.9792   11.4007 C.ar    1  UNL1        0.1446
     20 C          58.2463   89.9129   12.3857 C.ar    1  UNL1        0.1446
     21 N          58.9989   88.6652   12.0298 N.ar    1  UNL1       -0.1447
     22 C          63.7091   90.3272   14.0152 C.3     1  UNL1        0.0510
     23 C          64.9061   91.2303   13.9756 C.ar    1  UNL1        0.0071
     24 C          65.4877   91.6472   12.6574 C.ar    1  UNL1        0.0011
     25 C          66.6847   92.5503   12.6178 C.ar    1  UNL1        0.0356
     26 C          67.3001   93.0365   13.8964 C.ar    1  UNL1        0.0053
     27 C          66.7184   92.6196   15.2146 C.ar    1  UNL1        0.0294
     28 C          65.5214   91.7165   15.2542 C.ar    1  UNL1        0.1362
     29 F          64.9397   91.2996   16.5726 F       1  UNL1       -0.2045
     30 C          67.2664   92.9673   11.2994 C.ar    1  UNL1        0.1622
     31 N          68.1785   92.0382   10.5547 N.ar    1  UNL1       -0.2250
     32 C          68.7602   92.4551    9.2363 C.ar    1  UNL1        0.1022
     33 C          68.4296   93.8011    8.6628 C.ar    1  UNL1        0.0414
     34 C          67.5175   94.7303    9.4077 C.ar    1  UNL1        0.1022
     35 N          66.9359   94.3133   10.7259 N.ar    1  UNL1       -0.2250
@<TRIPOS>BOND
     1     9    10    1
     2    10    11   ar
     3    11    12   ar
     4    12    13   ar
     5    13     1    1
     6     1     2    2
     7     1     3   am
     8     3     4    1
     9     4     5    1
    10     5     6    1
    11     6     7    1
    12     7     8    1
    13     8    22    1
    14    22    23    1
    15    23    24   ar
    16    24    25   ar
    17    25    30    1
    18    30    31   ar
    19    31    32   ar
    20    32    33   ar
    21    33    34   ar
    22    34    35   ar
    23    25    26   ar
    24    26    27   ar
    25    27    28   ar
    26    28    29    1
    27    13    14   ar
    28    14    17    1
    29    17    18   ar
    30    18    19   ar
    31    19    20   ar
    32    20    21   ar
    33    14    15   ar
    34    15    16    1
    35    15    10   ar
    36     8     3    1
    37    28    23   ar
    38    21    17   ar
    39    35    30   ar
@<TRIPOS>MOLECULE
*****
 35 39 0 0 0
SMALL
GASTEIGER

@<TRIPOS>ATOM
      1 C          63.7130   87.8863   13.4023 C.2     1  UNL1        0.2506
      2 O          63.8553   88.5947   12.0878 O.2     1  UNL1       -0.2699
      3 N          63.5268   88.6762   14.6637 N.am    1  UNL1       -0.2723
      4 C          63.3845   87.9678   15.9782 C.3     1  UNL1        0.1257
      5 C          63.1982   88.7578   17.2396 C.3     1  UNL1        0.1637
      6 O          63.1543   90.2562   17.1866 O.3     1  UNL1       -0.3502
      7 C          63.2966   90.9646   15.8722 C.3     1  UNL1        0.1622
      8 C          63.4828   90.1747   14.6107 C.3     1  UNL1        0.1097
      9 C          63.8888   81.8926   13.6144 C.3     1  UNL1        0.0307
     10 C          63.8449   83.3910   13.5614 C.ar    1  UNL1       -0.0243
     11 C          64.6123   84.1998   14.5647 C.ar    1  UNL1       -0.0043
     12 C          64.5684   85.6982   14.5117 C.ar    1  UNL1        0.0057
     13 C          63.7570   86.3878   13.4553 C.ar    1  UNL1        0.0726
     14 C          62.9895   85.5790   12.4519 C.ar    1  UNL1        0.1029
     15 C          63.0334   84.0806   12.5050 C.ar    1  UNL1       -0.0062
     16 C          62.2659   83.2718   11.5015 C.3     1  UNL1        0.0323
     17 N          62.1780   86.2686   11.3955 N.ar    1  UNL1       -0.1480
     18 N          60.9006   87.0230   11.6172 N.ar    1  UNL1       -0.1447
     19 C          60.4346   87.5455   10.2907 C.ar    1  UNL1        0.1446
     20 C          61.4240   87.1141    9.2490 C.ar    1  UNL1        0.1446
     21 N          62.5015   86.3249    9.9319 N.ar    1  UNL1       -0.1447
     22 C          63.6251   90.8831   13.2962 C.3     1  UNL1        0.0510
     23 C          64.8959   91.6101   12.9697 C.ar    1  UNL1        0.0071
     24 C          64.9155   92.6289   11.8690 C.ar    1  UNL1        0.0011
     25 C          66.1863   93.3559   11.5425 C.ar    1  UNL1        0.0356
     26 C          67.4374   93.0642   12.3168 C.ar    1  UNL1        0.0053
     27 C          67.4178   92.0454   13.4176 C.ar    1  UNL1        0.0294
     28 C          66.1470   91.3184   13.7440 C.ar    1  UNL1        0.1362
     29 F          66.1274   90.2996   14.8449 F       1  UNL1       -0.2045
     30 C          66.2059   94.3747   10.4417 C.ar    1  UNL1        0.1622
     31 N          65.3679   95.6139   10.5516 N.ar    1  UNL1       -0.2250
     32 C          65.3875   96.6327    9.4507 C.ar    1  UNL1        0.1022
     33 C          66.2452   96.4122    8.2400 C.ar    1  UNL1        0.0414
     34 C          67.0832   95.1729    8.1301 C.ar    1  UNL1        0.1022
     35 N          67.0636   94.1542    9.2309 N.ar    1  UNL1       -0.2250
@<TRIPOS>BOND
     1     9    10    1
     2    10    11   ar
     3    11    12   ar
     4    12    13   ar
     5    13     1    1
     6     1     2    2
     7     1     3   am
     8     3     4    1
     9     4     5    1
    10     5     6    1
    11     6     7    1
    12     7     8    1
    13     8    22    1
    14    22    23    1
    15    23    24   ar
    16    24    25   ar
    17    25    30    1
    18    30    31   ar
    19    31    32   ar
    20    32    33   ar
    21    33    34   ar
    22    34    35   ar
    23    25    26   ar
    24    26    27   ar
    25    27    28   ar
    26    28    29    1
    27    13    14   ar
    28    14    17    1
    29    17    18   ar
    30    18    19   ar
    31    19    20   ar
    32    20    21   ar
    33    14    15   ar
    34    15    16    1
    35    15    10   ar
    36     8     3    1
    37    28    23   ar
    38    21    17   ar
    39    35    30   ar
@<TRIPOS>MOLECULE
*****
 35 39 0 0 0
SMALL
GASTEIGER

@<TRIPOS>ATOM
      1 C          63.4606   87.3536   13.2113 C.2     1  UNL1        0.2506
      2 O          63.4191   87.9833   11.8505 O.2     1  UNL1       -0.2699
      3 N          63.3502   88.2101   14.4377 N.am    1  UNL1       -0.2723
      4 C          63.3917   87.5804   15.7985 C.3     1  UNL1        0.1257
      5 C          63.2812   88.4368   17.0250 C.3     1  UNL1        0.1637
      6 O          63.1292   89.9231   16.8907 O.3     1  UNL1       -0.3502
      7 C          63.0877   90.5528   15.5299 C.3     1  UNL1        0.1622
      8 C          63.1982   89.6963   14.3034 C.3     1  UNL1        0.1097
      9 C          64.0685   81.4087   13.7485 C.3     1  UNL1        0.0307
     10 C          63.9166   82.8949   13.6142 C.ar    1  UNL1       -0.0243
     11 C          64.5050   83.8057   14.6506 C.ar    1  UNL1       -0.0043
     12 C          64.3530   85.2919   14.5163 C.ar    1  UNL1        0.0057
     13 C          63.6126   85.8674   13.3456 C.ar    1  UNL1        0.0726
     14 C          63.0242   84.9566   12.3092 C.ar    1  UNL1        0.1029
     15 C          63.1762   83.4704   12.4435 C.ar    1  UNL1       -0.0062
     16 C          62.5877   82.5596   11.4070 C.3     1  UNL1        0.0323
     17 N          62.2837   85.5320   11.1384 N.ar    1  UNL1       -0.1480
     18 N          62.7014   85.4423    9.7005 N.ar    1  UNL1       -0.1447
     19 C          61.6715   86.1530    8.8734 C.ar    1  UNL1        0.1446
     20 C          60.6173   86.6820    9.8001 C.ar    1  UNL1        0.1446
     21 N          60.9957   86.2982   11.1999 N.ar    1  UNL1       -0.1447
     22 C          63.1567   90.3261   12.9427 C.3     1  UNL1        0.0510
     23 C          64.2665   91.2341   12.5023 C.ar    1  UNL1        0.0071
     24 C          65.3730   91.5818   13.4533 C.ar    1  UNL1        0.0011
     25 C          66.4828   92.4899   13.0129 C.ar    1  UNL1        0.0356
     26 C          66.4860   93.0501   11.6215 C.ar    1  UNL1        0.0053
     27 C          65.3794   92.7023   10.6705 C.ar    1  UNL1        0.0294
     28 C          64.2697   91.7943   11.1109 C.ar    1  UNL1        0.1362
     29 F          63.1630   91.4465   10.1597 F       1  UNL1       -0.2045
     30 C          67.5894   92.8376   13.9640 C.ar    1  UNL1        0.1622
     31 N          67.3390   93.8014   15.0858 N.ar    1  UNL1       -0.2250
     32 C          68.4456   94.1491   16.0369 C.ar    1  UNL1        0.1022
     33 C          69.8026   93.5331   15.8662 C.ar    1  UNL1        0.0414
     34 C          70.0530   92.5694   14.7443 C.ar    1  UNL1        0.1022
     35 N          68.9464   92.2216   13.7933 N.ar    1  UNL1       -0.2250
@<TRIPOS>BOND
     1     9    10    1
     2    10    11   ar
     3    11    12   ar
     4    12    13   ar
     5    13     1    1
     6     1     2    2
     7     1     3   am
     8     3     4    1
     9     4     5    1
    10     5     6    1
    11     6     7    1
    12     7     8    1
    13     8    22    1
    14    22    23    1
    15    23    24   ar
    16    24    25   ar
    17    25    30    1
    18    30    31   ar
    19    31    32   ar
    20    32    33   ar
    21    33    34   ar
    22    34    35   ar
    23    25    26   ar
    24    26    27   ar
    25    27    28   ar
    26    28    29    1
    27    13    14   ar
    28    14    17    1
    29    17    18   ar
    30    18    19   ar
    31    19    20   ar
    32    20    21   ar
    33    14    15   ar
    34    15    16    1
    35    15    10   ar
    36     8     3    1
    37    28    23   ar
    38    21    17   ar
    39    35    30   ar
