@<TRIPOS>MOLECULE
*****
 37 41 0 0 0
SMALL
GASTEIGER

@<TRIPOS>ATOM
      1 C          60.9702   90.7277   10.9767 C.3     1  UNL1        0.0553
      2 C          61.6860   89.5425   11.5539 C.ar    1  UNL1        0.0935
      3 N          61.5293   88.1173   11.1132 N.ar    1  UNL1       -0.1727
      4 N          62.4306   87.2684   11.9601 N.ar    1  UNL1       -0.2558
      5 C          63.1444   88.1690   12.9241 C.ar    1  UNL1        0.0704
      6 C          64.1429   87.7396   13.9577 C.3     1  UNL1        0.0531
      7 C          62.6842   89.5745   12.6732 C.ar    1  UNL1        0.0792
      8 C          62.5902   85.7803   11.8604 C.3     1  UNL1        0.1083
      9 C          62.6091   84.9430   13.1048 C.3     1  UNL1        0.0459
     10 C          62.7687   83.4548   13.0051 C.3     1  UNL1        0.0954
     11 N          62.9092   82.8040   11.6609 N.am    1  UNL1       -0.2783
     12 C          63.0688   81.3158   11.5612 C.2     1  UNL1        0.2415
     13 O          63.2093   80.6650   10.2171 O.2     1  UNL1       -0.2734
     14 C          62.8902   83.6413   10.4165 C.3     1  UNL1        0.0954
     15 C          62.7307   85.1295   10.5163 C.3     1  UNL1        0.0459
     16 C          63.0878   80.4785   12.8056 C.3     1  UNL1        0.1517
     17 N          61.8361   80.3090   13.6147 N.3     1  UNL1       -0.3135
     18 H          61.5672   81.2069   14.0171 H       1  UNL1        0.1193
     19 H          62.0037   79.6373   14.3637 H       1  UNL1        0.1193
     20 N          63.1418   90.7973   13.4116 N.pl3   1  UNL1       -0.2806
     21 H          62.4911   91.3456   13.9067 H       1  UNL1        0.1551
     22 C          64.5908   91.1846   13.3959 C.ar    1  UNL1        0.2208
     23 N          65.4492   90.9269   14.5987 N.ar    1  UNL1       -0.2111
     24 C          66.8982   91.3143   14.5829 C.ar    1  UNL1        0.1147
     25 C          67.4889   91.9594   13.3643 C.ar    1  UNL1        0.0946
     26 CL         68.9379   92.3467   13.3485 Cl      1  UNL1       -0.0790
     27 C          66.6305   92.2171   12.1614 C.ar    1  UNL1        0.0992
     28 N          65.1815   91.8297   12.1772 N.ar    1  UNL1       -0.2126
     29 C          67.2211   92.8622   10.9428 C.ar    1  UNL1        0.0572
     30 C          68.2213   92.2409   10.0135 C.ar    1  UNL1        0.1235
     31 N          68.5336   93.2366    8.9359 N.ar    1  UNL1       -0.1634
     32 N          67.7264   94.4732    9.1993 N.ar    1  UNL1       -0.2281
     33 C          67.6253   95.7800    8.4699 C.ar    1  UNL1        0.1004
     34 C          66.7130   96.8553    8.9809 C.ar    1  UNL1        0.0207
     35 C          65.9018   96.6239   10.2212 C.ar    1  UNL1        0.0031
     36 C          66.0029   95.3171   10.9506 C.ar    1  UNL1        0.0193
     37 C          66.9153   94.2418   10.4396 C.ar    1  UNL1        0.0858
@<TRIPOS>BOND
     1     1     2    1
     2     2     3   ar
     3     3     4   ar
     4     4     8    1
     5     8     9    1
     6     9    10    1
     7    10    11    1
     8    11    12   am
     9    12    13    2
    10    12    16    1
    11    16    17    1
    12    11    14    1
    13    14    15    1
    14     4     5   ar
    15     5     6    1
    16     5     7   ar
    17     7    20    1
    18    20    22    1
    19    22    23   ar
    20    23    24   ar
    21    24    25   ar
    22    25    26    1
    23    25    27   ar
    24    27    29    1
    25    29    30   ar
    26    30    31   ar
    27    31    32   ar
    28    32    33   ar
    29    33    34   ar
    30    34    35   ar
    31    35    36   ar
    32    36    37   ar
    33    27    28   ar
    34     7     2   ar
    35    28    22   ar
    36    15     8    1
    37    37    29   ar
    38    37    32   ar
    39    17    18    1
    40    17    19    1
    41    20    21    1
@<TRIPOS>MOLECULE
*****
 37 41 0 0 0
SMALL
GASTEIGER

@<TRIPOS>ATOM
      1 C          62.3848   86.7326   18.3483 C.3     1  UNL1        0.0553
      2 C          63.0530   87.1213   17.0629 C.ar    1  UNL1        0.0935
      3 N          63.1973   88.5164   16.5310 N.ar    1  UNL1       -0.1727
      4 N          63.9279   88.4405   15.2230 N.ar    1  UNL1       -0.2558
      5 C          64.2351   86.9986   14.9466 C.ar    1  UNL1        0.0704
      6 C          64.9563   86.4656   13.7444 C.3     1  UNL1        0.0531
      7 C          63.6945   86.1832   16.0838 C.ar    1  UNL1        0.0792
      8 C          64.2879   89.6026   14.3455 C.3     1  UNL1        0.1083
      9 C          65.3258   90.5881   14.7945 C.3     1  UNL1        0.0459
     10 C          65.6859   91.7502   13.9170 C.3     1  UNL1        0.0954
     11 N          65.0081   91.9267   12.5906 N.am    1  UNL1       -0.2783
     12 C          65.3682   93.0888   11.7131 C.2     1  UNL1        0.2415
     13 O          64.6904   93.2653   10.3866 O.2     1  UNL1       -0.2734
     14 C          63.9702   90.9411   12.1416 C.3     1  UNL1        0.0954
     15 C          63.6102   89.7791   13.0192 C.3     1  UNL1        0.0459
     16 C          66.4060   94.0743   12.1621 C.3     1  UNL1        0.1517
     17 N          66.0755   95.5362   12.2227 N.3     1  UNL1       -0.3135
     18 H          65.9050   95.8856   11.2797 H       1  UNL1        0.1193
     19 H          66.8566   96.0444   12.6376 H       1  UNL1        0.1193
     20 N          63.7801   84.6918   16.2182 N.pl3   1  UNL1       -0.2806
     21 H          64.0246   84.2887   17.0825 H       1  UNL1        0.1551
     22 C          63.4933   83.8144   15.0359 C.ar    1  UNL1        0.2208
     23 N          63.2871   82.3411   15.2277 N.ar    1  UNL1       -0.2111
     24 C          63.0003   81.4637   14.0454 C.ar    1  UNL1        0.1147
     25 C          62.9197   82.0596   12.6712 C.ar    1  UNL1        0.0946
     26 CL         62.6329   81.1823   11.4888 Cl      1  UNL1       -0.0790
     27 C          63.1259   83.5330   12.4793 C.ar    1  UNL1        0.0992
     28 N          63.4127   84.4103   13.6617 N.ar    1  UNL1       -0.2126
     29 C          63.0453   84.1290   11.1052 C.ar    1  UNL1        0.0572
     30 C          63.7553   83.6264    9.8832 C.ar    1  UNL1        0.1235
     31 N          63.3893   84.5189    8.7345 N.ar    1  UNL1       -0.1634
     32 N          62.4531   85.5731    9.2466 N.ar    1  UNL1       -0.2281
     33 C          61.7668   86.7214    8.5681 C.ar    1  UNL1        0.1004
     34 C          60.8679   87.6286    9.3547 C.ar    1  UNL1        0.0207
     35 C          60.6553   87.3876   10.8199 C.ar    1  UNL1        0.0031
     36 C          61.3416   86.2394   11.4984 C.ar    1  UNL1        0.0193
     37 C          62.2405   85.3321   10.7118 C.ar    1  UNL1        0.0858
@<TRIPOS>BOND
     1     1     2    1
     2     2     3   ar
     3     3     4   ar
     4     4     8    1
     5     8     9    1
     6     9    10    1
     7    10    11    1
     8    11    12   am
     9    12    13    2
    10    12    16    1
    11    16    17    1
    12    11    14    1
    13    14    15    1
    14     4     5   ar
    15     5     6    1
    16     5     7   ar
    17     7    20    1
    18    20    22    1
    19    22    23   ar
    20    23    24   ar
    21    24    25   ar
    22    25    26    1
    23    25    27   ar
    24    27    29    1
    25    29    30   ar
    26    30    31   ar
    27    31    32   ar
    28    32    33   ar
    29    33    34   ar
    30    34    35   ar
    31    35    36   ar
    32    36    37   ar
    33    27    28   ar
    34     7     2   ar
    35    28    22   ar
    36    15     8    1
    37    37    29   ar
    38    37    32   ar
    39    17    18    1
    40    17    19    1
    41    20    21    1
@<TRIPOS>MOLECULE
*****
 37 41 0 0 0
SMALL
GASTEIGER

@<TRIPOS>ATOM
      1 C          59.0228   89.2243   12.6722 C.3     1  UNL1        0.0553
      2 C          60.3899   89.7822   12.4086 C.ar    1  UNL1        0.0935
      3 N          61.4298   90.0937   13.4438 N.ar    1  UNL1       -0.1727
      4 N          62.6399   90.6306   12.7384 N.ar    1  UNL1       -0.2558
      5 C          62.3480   90.6508   11.2673 C.ar    1  UNL1        0.0704
      6 C          63.2824   91.1140   10.1893 C.3     1  UNL1        0.0531
      7 C          60.9574   90.1265   11.0634 C.ar    1  UNL1        0.0792
      8 C          63.9176   91.0700   13.3898 C.3     1  UNL1        0.1083
      9 C          65.0327   91.6259   12.5547 C.3     1  UNL1        0.0459
     10 C          66.3105   92.0654   13.2061 C.3     1  UNL1        0.0954
     11 N          66.4730   91.9488   14.6927 N.am    1  UNL1       -0.2783
     12 C          67.7508   92.3883   15.3441 C.2     1  UNL1        0.2415
     13 O          67.9135   92.2717   16.8307 O.2     1  UNL1       -0.2734
     14 C          65.3580   91.3928   15.5279 C.3     1  UNL1        0.0954
     15 C          64.0803   90.9534   14.8764 C.3     1  UNL1        0.0459
     16 C          68.8659   92.9442   14.5089 C.3     1  UNL1        0.1517
     17 N          69.7041   92.0260   13.6698 N.3     1  UNL1       -0.3135
     18 H          70.2388   91.4043   14.2765 H       1  UNL1        0.1193
     19 H          70.3445   92.5772   13.0985 H       1  UNL1        0.1193
     20 N          60.2572   89.9733    9.7457 N.pl3   1  UNL1       -0.2806
     21 H          59.7523   90.7283    9.3660 H       1  UNL1        0.1551
     22 C          60.3263   88.6699    9.0067 C.ar    1  UNL1        0.2208
     23 N          59.4100   88.4161    7.8465 N.ar    1  UNL1       -0.2111
     24 C          59.4791   87.1126    7.1075 C.ar    1  UNL1        0.1147
     25 C          60.4644   86.0629    7.5286 C.ar    1  UNL1        0.0946
     26 CL         60.5335   84.7595    6.7896 Cl      1  UNL1       -0.0790
     27 C          61.3808   86.3168    8.6888 C.ar    1  UNL1        0.0992
     28 N          61.3116   87.6202    9.4278 N.ar    1  UNL1       -0.2126
     29 C          62.3661   85.2671    9.1100 C.ar    1  UNL1        0.0572
     30 C          63.2118   84.4334    8.1936 C.ar    1  UNL1        0.1235
     31 N          64.0471   83.5180    9.0387 N.ar    1  UNL1       -0.1634
     32 N          63.7176   83.7859   10.4774 N.ar    1  UNL1       -0.2281
     33 C          64.2294   83.1851   11.7529 C.ar    1  UNL1        0.1004
     34 C          63.7023   83.6655   13.0725 C.ar    1  UNL1        0.0207
     35 C          62.6634   84.7465   13.1166 C.ar    1  UNL1        0.0031
     36 C          62.1516   85.3473   11.8410 C.ar    1  UNL1        0.0193
     37 C          62.6787   84.8670   10.5214 C.ar    1  UNL1        0.0858
@<TRIPOS>BOND
     1     1     2    1
     2     2     3   ar
     3     3     4   ar
     4     4     8    1
     5     8     9    1
     6     9    10    1
     7    10    11    1
     8    11    12   am
     9    12    13    2
    10    12    16    1
    11    16    17    1
    12    11    14    1
    13    14    15    1
    14     4     5   ar
    15     5     6    1
    16     5     7   ar
    17     7    20    1
    18    20    22    1
    19    22    23   ar
    20    23    24   ar
    21    24    25   ar
    22    25    26    1
    23    25    27   ar
    24    27    29    1
    25    29    30   ar
    26    30    31   ar
    27    31    32   ar
    28    32    33   ar
    29    33    34   ar
    30    34    35   ar
    31    35    36   ar
    32    36    37   ar
    33    27    28   ar
    34     7     2   ar
    35    28    22   ar
    36    15     8    1
    37    37    29   ar
    38    37    32   ar
    39    17    18    1
    40    17    19    1
    41    20    21    1
@<TRIPOS>MOLECULE
*****
 37 41 0 0 0
SMALL
GASTEIGER

@<TRIPOS>ATOM
      1 C          63.3675   90.5893   11.8390 C.3     1  UNL1        0.0553
      2 C          63.4342   89.3991   12.7495 C.ar    1  UNL1        0.0935
      3 N          63.4454   87.9614   12.3219 N.ar    1  UNL1       -0.1727
      4 N          63.5195   87.1113   13.5556 N.ar    1  UNL1       -0.2558
      5 C          63.5542   88.0237   14.7457 C.ar    1  UNL1        0.0704
      6 C          63.6285   87.5972   16.1818 C.3     1  UNL1        0.0531
      7 C          63.5014   89.4376   14.2475 C.ar    1  UNL1        0.0792
      8 C          63.5531   85.6122   13.5927 C.3     1  UNL1        0.1083
      9 C          62.5477   84.8199   12.8108 C.3     1  UNL1        0.0459
     10 C          62.5813   83.3207   12.8479 C.3     1  UNL1        0.0954
     11 N          63.6203   82.6139   13.6669 N.am    1  UNL1       -0.2783
     12 C          63.6539   81.1147   13.7040 C.2     1  UNL1        0.2415
     13 O          64.6929   80.4078   14.5231 O.2     1  UNL1       -0.2734
     14 C          64.6257   83.4062   14.4489 C.3     1  UNL1        0.0954
     15 C          64.5921   84.9053   14.4117 C.3     1  UNL1        0.0459
     16 C          62.6485   80.3224   12.9221 C.3     1  UNL1        0.1517
     17 N          61.2898   80.0569   13.4995 N.3     1  UNL1       -0.3135
     18 H          61.3800   79.4565   14.3191 H       1  UNL1        0.1193
     19 H          60.7082   79.5937   12.8012 H       1  UNL1        0.1193
     20 N          63.5138   90.6732   15.0980 N.pl3   1  UNL1       -0.2806
     21 H          62.7483   90.8757   15.6830 H       1  UNL1        0.1551
     22 C          64.6924   91.6001   15.0571 C.ar    1  UNL1        0.2208
     23 N          65.5603   91.7637   16.2695 N.ar    1  UNL1       -0.2111
     24 C          66.7388   92.6906   16.2287 C.ar    1  UNL1        0.1147
     25 C          67.0495   93.4540   14.9754 C.ar    1  UNL1        0.0946
     26 CL         68.2281   94.3810   14.9345 Cl      1  UNL1       -0.0790
     27 C          66.1816   93.2905   13.7629 C.ar    1  UNL1        0.0992
     28 N          65.0030   92.3635   13.8038 N.ar    1  UNL1       -0.2126
     29 C          66.4922   94.0539   12.5096 C.ar    1  UNL1        0.0572
     30 C          66.2191   95.5098   12.2735 C.ar    1  UNL1        0.1235
     31 N          66.6887   95.8511   10.8904 N.ar    1  UNL1       -0.1634
     32 N          67.2520   94.6061   10.2717 N.ar    1  UNL1       -0.2281
     33 C          67.8598   94.3404    8.9264 C.ar    1  UNL1        0.1004
     34 C          68.3462   92.9640    8.5818 C.ar    1  UNL1        0.0207
     35 C          68.2248   91.8532    9.5826 C.ar    1  UNL1        0.0031
     36 C          67.6170   92.1189   10.9279 C.ar    1  UNL1        0.0193
     37 C          67.1306   93.4954   11.2725 C.ar    1  UNL1        0.0858
@<TRIPOS>BOND
     1     1     2    1
     2     2     3   ar
     3     3     4   ar
     4     4     8    1
     5     8     9    1
     6     9    10    1
     7    10    11    1
     8    11    12   am
     9    12    13    2
    10    12    16    1
    11    16    17    1
    12    11    14    1
    13    14    15    1
    14     4     5   ar
    15     5     6    1
    16     5     7   ar
    17     7    20    1
    18    20    22    1
    19    22    23   ar
    20    23    24   ar
    21    24    25   ar
    22    25    26    1
    23    25    27   ar
    24    27    29    1
    25    29    30   ar
    26    30    31   ar
    27    31    32   ar
    28    32    33   ar
    29    33    34   ar
    30    34    35   ar
    31    35    36   ar
    32    36    37   ar
    33    27    28   ar
    34     7     2   ar
    35    28    22   ar
    36    15     8    1
    37    37    29   ar
    38    37    32   ar
    39    17    18    1
    40    17    19    1
    41    20    21    1
@<TRIPOS>MOLECULE
*****
 37 41 0 0 0
SMALL
GASTEIGER

@<TRIPOS>ATOM
      1 C          59.8096   89.9487    8.2629 C.3     1  UNL1        0.0553
      2 C          60.8498   89.7410    9.3234 C.ar    1  UNL1        0.0935
      3 N          61.5847   90.8208   10.0611 N.ar    1  UNL1       -0.1727
      4 N          62.5270   90.1642   11.0260 N.ar    1  UNL1       -0.2558
      5 C          62.3745   88.6787   10.8848 C.ar    1  UNL1        0.0704
      6 C          63.1264   87.6375   11.6596 C.3     1  UNL1        0.0531
      7 C          61.3380   88.4171    9.8324 C.ar    1  UNL1        0.0792
      8 C          63.4582   90.8693   11.9671 C.3     1  UNL1        0.1083
      9 C          63.4077   90.5708   13.4362 C.3     1  UNL1        0.0459
     10 C          64.3390   91.2760   14.3773 C.3     1  UNL1        0.0954
     11 N          65.3207   92.2796   13.8491 N.am    1  UNL1       -0.2783
     12 C          66.2520   92.9848   14.7902 C.2     1  UNL1        0.2415
     13 O          67.2338   93.9884   14.2621 O.2     1  UNL1       -0.2734
     14 C          65.3713   92.5781   12.3800 C.3     1  UNL1        0.0954
     15 C          64.4400   91.8729   11.4390 C.3     1  UNL1        0.0459
     16 C          66.2014   92.6863   16.2593 C.3     1  UNL1        0.1517
     17 N          64.9223   92.8756   17.0195 N.3     1  UNL1       -0.3135
     18 H          64.6814   93.8666   17.0382 H       1  UNL1        0.1193
     19 H          65.0407   92.5364   17.9741 H       1  UNL1        0.1193
     20 N          60.8714   87.0685    9.3703 N.pl3   1  UNL1       -0.2806
     21 H          60.0040   86.9776    8.9137 H       1  UNL1        0.1551
     22 C          61.7265   85.8584    9.6038 C.ar    1  UNL1        0.2208
     23 N          62.4806   85.2416    8.4632 N.ar    1  UNL1       -0.2111
     24 C          63.3357   84.0315    8.6967 C.ar    1  UNL1        0.1147
     25 C          63.4367   83.4383   10.0707 C.ar    1  UNL1        0.0946
     26 CL         64.2918   82.2282   10.3041 Cl      1  UNL1       -0.0790
     27 C          62.6826   84.0552   11.2113 C.ar    1  UNL1        0.0992
     28 N          61.8276   85.2652   10.9778 N.ar    1  UNL1       -0.2126
     29 C          62.7836   83.4619   12.5853 C.ar    1  UNL1        0.0572
     30 C          62.4469   82.0498   12.9629 C.ar    1  UNL1        0.1235
     31 N          62.6943   81.8919   14.4338 N.ar    1  UNL1       -0.1634
     32 N          63.1839   83.2063   14.9654 N.ar    1  UNL1       -0.2281
     33 C          63.5866   83.6450   16.3421 C.ar    1  UNL1        0.1004
     34 C          64.0445   85.0540   16.5763 C.ar    1  UNL1        0.0207
     35 C          64.0997   86.0244   15.4338 C.ar    1  UNL1        0.0031
     36 C          63.6970   85.5857   14.0571 C.ar    1  UNL1        0.0193
     37 C          63.2391   84.1767   13.8229 C.ar    1  UNL1        0.0858
@<TRIPOS>BOND
     1     1     2    1
     2     2     3   ar
     3     3     4   ar
     4     4     8    1
     5     8     9    1
     6     9    10    1
     7    10    11    1
     8    11    12   am
     9    12    13    2
    10    12    16    1
    11    16    17    1
    12    11    14    1
    13    14    15    1
    14     4     5   ar
    15     5     6    1
    16     5     7   ar
    17     7    20    1
    18    20    22    1
    19    22    23   ar
    20    23    24   ar
    21    24    25   ar
    22    25    26    1
    23    25    27   ar
    24    27    29    1
    25    29    30   ar
    26    30    31   ar
    27    31    32   ar
    28    32    33   ar
    29    33    34   ar
    30    34    35   ar
    31    35    36   ar
    32    36    37   ar
    33    27    28   ar
    34     7     2   ar
    35    28    22   ar
    36    15     8    1
    37    37    29   ar
    38    37    32   ar
    39    17    18    1
    40    17    19    1
    41    20    21    1
@<TRIPOS>MOLECULE
*****
 37 41 0 0 0
SMALL
GASTEIGER

@<TRIPOS>ATOM
      1 C          59.8542   90.4564    9.3413 C.3     1  UNL1        0.0553
      2 C          60.9544   90.1379   10.3099 C.ar    1  UNL1        0.0935
      3 N          61.7638   91.1357   11.0840 N.ar    1  UNL1       -0.1727
      4 N          62.7480   90.3801   11.9270 N.ar    1  UNL1       -0.2558
      5 C          62.5469   88.9154   11.6738 C.ar    1  UNL1        0.0704
      6 C          63.3186   87.7968   12.3086 C.3     1  UNL1        0.0531
      7 C          61.4383   88.7656   10.6744 C.ar    1  UNL1        0.0792
      8 C          63.7563   90.9833   12.8594 C.3     1  UNL1        0.1083
      9 C          64.9290   91.7393   12.3086 C.3     1  UNL1        0.0459
     10 C          65.9374   92.3426   13.2411 C.3     1  UNL1        0.0954
     11 N          65.7730   92.1898   14.7242 N.am    1  UNL1       -0.2783
     12 C          66.7814   92.7931   15.6566 C.2     1  UNL1        0.2415
     13 O          66.6170   92.6404   17.1397 O.2     1  UNL1       -0.2734
     14 C          64.6003   91.4338   15.2749 C.3     1  UNL1        0.0954
     15 C          63.5920   90.8306   14.3424 C.3     1  UNL1        0.0459
     16 C          67.9540   93.5490   15.1058 C.3     1  UNL1        0.1517
     17 N          69.1396   92.8051   14.5664 N.3     1  UNL1       -0.3135
     18 H          69.6008   92.3040   15.3258 H       1  UNL1        0.1193
     19 H          69.7942   93.4660   14.1482 H       1  UNL1        0.1193
     20 N          60.9070   87.4711   10.1343 N.pl3   1  UNL1       -0.2806
     21 H          59.9717   87.4103    9.8331 H       1  UNL1        0.1551
     22 C          61.8006   86.2691   10.0531 C.ar    1  UNL1        0.2208
     23 N          62.3306   85.8169    8.7247 N.ar    1  UNL1       -0.2111
     24 C          63.2242   84.6149    8.6436 C.ar    1  UNL1        0.1147
     25 C          63.5879   83.8651    9.8908 C.ar    1  UNL1        0.0946
     26 CL         64.4815   82.6631    9.8096 Cl      1  UNL1       -0.0790
     27 C          63.0578   84.3173   11.2192 C.ar    1  UNL1        0.0992
     28 N          62.1643   85.5192   11.3003 N.ar    1  UNL1       -0.2126
     29 C          63.4215   83.5675   12.4665 C.ar    1  UNL1        0.0572
     30 C          64.1488   84.1287   13.6522 C.ar    1  UNL1        0.1235
     31 N          64.2984   83.0328   14.6654 N.ar    1  UNL1       -0.1634
     32 N          63.6636   81.7943   14.1059 N.ar    1  UNL1       -0.2281
     33 C          63.5091   80.4083   14.6583 C.ar    1  UNL1        0.1004
     34 C          62.8126   79.3528   13.8517 C.ar    1  UNL1        0.0207
     35 C          62.2706   79.6832   12.4926 C.ar    1  UNL1        0.0031
     36 C          62.4251   81.0692   11.9402 C.ar    1  UNL1        0.0193
     37 C          63.1217   82.1247   12.7468 C.ar    1  UNL1        0.0858
@<TRIPOS>BOND
     1     1     2    1
     2     2     3   ar
     3     3     4   ar
     4     4     8    1
     5     8     9    1
     6     9    10    1
     7    10    11    1
     8    11    12   am
     9    12    13    2
    10    12    16    1
    11    16    17    1
    12    11    14    1
    13    14    15    1
    14     4     5   ar
    15     5     6    1
    16     5     7   ar
    17     7    20    1
    18    20    22    1
    19    22    23   ar
    20    23    24   ar
    21    24    25   ar
    22    25    26    1
    23    25    27   ar
    24    27    29    1
    25    29    30   ar
    26    30    31   ar
    27    31    32   ar
    28    32    33   ar
    29    33    34   ar
    30    34    35   ar
    31    35    36   ar
    32    36    37   ar
    33    27    28   ar
    34     7     2   ar
    35    28    22   ar
    36    15     8    1
    37    37    29   ar
    38    37    32   ar
    39    17    18    1
    40    17    19    1
    41    20    21    1
