@<TRIPOS>MOLECULE
*****
 25 28 0 0 0
SMALL
GASTEIGER

@<TRIPOS>ATOM
      1 C          63.7155   90.8583   12.9762 C.ar    1  UNL1        0.2228
      2 N          63.1214   91.6401   11.8422 N.ar    1  UNL1       -0.1240
      3 N          62.5131   90.6667   10.8767 N.ar    1  UNL1       -0.1315
      4 C          62.7312   89.2832   11.4138 C.ar    1  UNL1        0.1616
      5 N          63.4743   89.4017   12.7114 N.ar    1  UNL1       -0.2918
      6 C          63.8354   88.1678   13.4842 C.3     1  UNL1        0.1303
      7 C          63.4533   86.8155   12.9595 C.3     1  UNL1        0.1186
      8 N          62.7101   86.6971   11.6619 N.am    1  UNL1       -0.2688
      9 C          62.3281   85.3449   11.1371 C.2     1  UNL1        0.2494
     10 O          61.5849   85.2264    9.8396 O.2     1  UNL1       -0.2699
     11 C          62.3491   87.9310   10.8891 C.3     1  UNL1        0.1343
     12 C          61.6059   87.8126    9.5915 C.3     1  UNL1        0.0298
     13 C          62.6891   84.1110   11.9100 C.ar    1  UNL1        0.0537
     14 C          62.3159   83.9972   13.3583 C.ar    1  UNL1        0.0068
     15 C          62.6770   82.7633   14.1311 C.ar    1  UNL1        0.0298
     16 C          63.4113   81.6433   13.4556 C.ar    1  UNL1        0.1401
     17 F          63.7724   80.4094   14.2284 F       1  UNL1       -0.2042
     18 C          63.7846   81.7572   12.0072 C.ar    1  UNL1        0.0298
     19 C          63.4235   82.9910   11.2344 C.ar    1  UNL1        0.0068
     20 C          67.4667   92.8949   16.0844 C.3     1  UNL1        0.0773
     21 C          66.1503   92.3684   15.5947 C.ar    1  UNL1        0.1813
     22 N          64.8886   92.2627   16.3992 N.ar    1  UNL1       -0.0601
     23 O          63.8230   91.6842   15.5161 O.2     1  UNL1       -0.3295
     24 C          64.4260   91.4323   14.1660 C.ar    1  UNL1        0.2958
     25 N          65.8644   91.8551   14.2145 N.ar    1  UNL1       -0.1885
@<TRIPOS>BOND
     1    20    21    1
     2    21    22   ar
     3    22    23   ar
     4    23    24   ar
     5    24     1    1
     6     1     2   ar
     7     2     3   ar
     8     3     4   ar
     9     4     5   ar
    10     5     6    1
    11     6     7    1
    12     7     8    1
    13     8     9   am
    14     9    10    2
    15     9    13    1
    16    13    14   ar
    17    14    15   ar
    18    15    16   ar
    19    16    17    1
    20    16    18   ar
    21    18    19   ar
    22     8    11    1
    23    11    12    1
    24    24    25   ar
    25    25    21   ar
    26     5     1   ar
    27    19    13   ar
    28    11     4    1
@<TRIPOS>MOLECULE
*****
 25 28 0 0 0
SMALL
GASTEIGER

@<TRIPOS>ATOM
      1 C          63.1860   84.8275   15.5408 C.ar    1  UNL1        0.2228
      2 N          62.6633   84.8470   16.9467 N.ar    1  UNL1       -0.1240
      3 N          62.6534   86.2710   17.4178 N.ar    1  UNL1       -0.1315
      4 C          63.1700   87.1317   16.3031 C.ar    1  UNL1        0.1616
      5 N          63.4992   86.2396   15.1431 N.ar    1  UNL1       -0.2918
      6 C          64.0415   86.8282   13.8745 C.3     1  UNL1        0.1303
      7 C          64.2547   88.3090   13.7659 C.3     1  UNL1        0.1186
      8 N          63.9255   89.2012   14.9260 N.am    1  UNL1       -0.2688
      9 C          64.1387   90.6819   14.8174 C.2     1  UNL1        0.2494
     10 O          63.8095   91.5741   15.9775 O.2     1  UNL1       -0.2699
     11 C          63.3831   88.6125   16.1946 C.3     1  UNL1        0.1343
     12 C          63.0540   89.5046   17.3546 C.3     1  UNL1        0.0298
     13 C          64.6810   91.2706   13.5488 C.ar    1  UNL1        0.0537
     14 C          63.8590   91.2361   12.2946 C.ar    1  UNL1        0.0068
     15 C          64.4014   91.8247   11.0260 C.ar    1  UNL1        0.0298
     16 C          65.7657   92.4478   11.0116 C.ar    1  UNL1        0.1401
     17 F          66.3081   93.0365    9.7430 F       1  UNL1       -0.2042
     18 C          66.5877   92.4823   12.2659 C.ar    1  UNL1        0.0298
     19 C          66.0454   91.8937   13.5344 C.ar    1  UNL1        0.0068
     20 C          62.4741   80.0690   13.3659 C.3     1  UNL1        0.0773
     21 C          63.0370   81.4226   13.6836 C.ar    1  UNL1        0.1813
     22 N          64.2402   82.0494   13.0435 N.ar    1  UNL1       -0.0601
     23 O          64.4424   83.4013   13.6614 O.2     1  UNL1       -0.3295
     24 C          63.3643   83.6099   14.6832 C.ar    1  UNL1        0.2958
     25 N          62.4957   82.3870   14.6970 N.ar    1  UNL1       -0.1885
@<TRIPOS>BOND
     1    20    21    1
     2    21    22   ar
     3    22    23   ar
     4    23    24   ar
     5    24     1    1
     6     1     2   ar
     7     2     3   ar
     8     3     4   ar
     9     4     5   ar
    10     5     6    1
    11     6     7    1
    12     7     8    1
    13     8     9   am
    14     9    10    2
    15     9    13    1
    16    13    14   ar
    17    14    15   ar
    18    15    16   ar
    19    16    17    1
    20    16    18   ar
    21    18    19   ar
    22     8    11    1
    23    11    12    1
    24    24    25   ar
    25    25    21   ar
    26     5     1   ar
    27    19    13   ar
    28    11     4    1
@<TRIPOS>MOLECULE
*****
 25 28 0 0 0
SMALL
GASTEIGER

@<TRIPOS>ATOM
      1 C          61.2917   89.0622    9.9321 C.ar    1  UNL1        0.2228
      2 N          61.9330   90.3049   10.4747 N.ar    1  UNL1       -0.1240
      3 N          62.7903   89.9125   11.6414 N.ar    1  UNL1       -0.1315
      4 C          62.6789   88.4273   11.8197 C.ar    1  UNL1        0.1616
      5 N          61.7527   87.9018   10.7633 N.ar    1  UNL1       -0.2918
      6 C          61.4488   86.4346   10.6948 C.3     1  UNL1        0.1303
      7 C          62.0711   85.4927   11.6826 C.3     1  UNL1        0.1186
      8 N          62.9973   86.0183   12.7390 N.am    1  UNL1       -0.2688
      9 C          63.6195   85.0765   13.7269 C.2     1  UNL1        0.2494
     10 O          64.5457   85.6021   14.7833 O.2     1  UNL1       -0.2699
     11 C          63.3012   87.4856   12.8076 C.3     1  UNL1        0.1343
     12 C          64.2274   88.0111   13.8640 C.3     1  UNL1        0.0298
     13 C          63.3156   83.6093   13.6583 C.ar    1  UNL1        0.0537
     14 C          62.1972   83.0359   14.4772 C.ar    1  UNL1        0.0068
     15 C          61.8933   81.5686   14.4086 C.ar    1  UNL1        0.0298
     16 C          62.7078   80.6747   13.5212 C.ar    1  UNL1        0.1401
     17 F          62.4038   79.2074   13.4526 F       1  UNL1       -0.2042
     18 C          63.8261   81.2480   12.7023 C.ar    1  UNL1        0.0298
     19 C          64.1301   82.7153   12.7709 C.ar    1  UNL1        0.0068
     20 C          58.6443   90.3068    5.5363 C.3     1  UNL1        0.0773
     21 C          59.1372   89.5643    6.7429 C.ar    1  UNL1        0.1813
     22 N          58.6851   88.2047    7.1869 N.ar    1  UNL1       -0.0601
     23 O          59.4372   87.8511    8.4358 O.2     1  UNL1       -0.3295
     24 C          60.3540   88.9922    8.7634 C.ar    1  UNL1        0.2958
     25 N          60.1686   90.0510    7.7172 N.ar    1  UNL1       -0.1885
@<TRIPOS>BOND
     1    20    21    1
     2    21    22   ar
     3    22    23   ar
     4    23    24   ar
     5    24     1    1
     6     1     2   ar
     7     2     3   ar
     8     3     4   ar
     9     4     5   ar
    10     5     6    1
    11     6     7    1
    12     7     8    1
    13     8     9   am
    14     9    10    2
    15     9    13    1
    16    13    14   ar
    17    14    15   ar
    18    15    16   ar
    19    16    17    1
    20    16    18   ar
    21    18    19   ar
    22     8    11    1
    23    11    12    1
    24    24    25   ar
    25    25    21   ar
    26     5     1   ar
    27    19    13   ar
    28    11     4    1
@<TRIPOS>MOLECULE
*****
 25 28 0 0 0
SMALL
GASTEIGER

@<TRIPOS>ATOM
      1 C          59.3955   88.6372    7.3857 C.ar    1  UNL1        0.2228
      2 N          58.9718   87.2007    7.3028 N.ar    1  UNL1       -0.1240
      3 N          59.6426   86.4545    8.4178 N.ar    1  UNL1       -0.1315
      4 C          60.4809   87.4299    9.1898 C.ar    1  UNL1        0.1616
      5 N          60.3282   88.7789    8.5519 N.ar    1  UNL1       -0.2918
      6 C          61.0581   89.9619    9.1154 C.3     1  UNL1        0.1303
      7 C          61.9408   89.7960   10.3168 C.3     1  UNL1        0.1186
      8 N          62.0936   88.4470   10.9547 N.am    1  UNL1       -0.2688
      9 C          62.9762   88.2811   12.1561 C.2     1  UNL1        0.2494
     10 O          63.1290   86.9321   12.7940 O.2     1  UNL1       -0.2699
     11 C          61.3636   87.2639   10.3912 C.3     1  UNL1        0.1343
     12 C          61.5163   85.9150   11.0291 C.3     1  UNL1        0.0298
     13 C          63.7062   89.4642   12.7196 C.ar    1  UNL1        0.0537
     14 C          63.8786   90.7030   11.8916 C.ar    1  UNL1        0.0068
     15 C          64.6086   91.8861   12.4552 C.ar    1  UNL1        0.0298
     16 C          65.1661   91.8303   13.8466 C.ar    1  UNL1        0.1401
     17 F          65.8960   93.0134   14.4101 F       1  UNL1       -0.2042
     18 C          64.9936   90.5914   14.6745 C.ar    1  UNL1        0.0298
     19 C          64.2637   89.4084   14.1110 C.ar    1  UNL1        0.0068
     20 C          59.5033   92.6012    3.8992 C.3     1  UNL1        0.0773
     21 C          59.0121   91.5607    4.8616 C.ar    1  UNL1        0.1813
     22 N          57.5805   91.3068    5.2305 N.ar    1  UNL1       -0.0601
     23 O          57.5499   90.1807    6.2210 O.2     1  UNL1       -0.3295
     24 C          58.9625   89.7387    6.4642 C.ar    1  UNL1        0.2958
     25 N          59.8662   90.5916    5.6240 N.ar    1  UNL1       -0.1885
@<TRIPOS>BOND
     1    20    21    1
     2    21    22   ar
     3    22    23   ar
     4    23    24   ar
     5    24     1    1
     6     1     2   ar
     7     2     3   ar
     8     3     4   ar
     9     4     5   ar
    10     5     6    1
    11     6     7    1
    12     7     8    1
    13     8     9   am
    14     9    10    2
    15     9    13    1
    16    13    14   ar
    17    14    15   ar
    18    15    16   ar
    19    16    17    1
    20    16    18   ar
    21    18    19   ar
    22     8    11    1
    23    11    12    1
    24    24    25   ar
    25    25    21   ar
    26     5     1   ar
    27    19    13   ar
    28    11     4    1
@<TRIPOS>MOLECULE
*****
 25 28 0 0 0
SMALL
GASTEIGER

@<TRIPOS>ATOM
      1 C          62.4252   84.8922   11.9701 C.ar    1  UNL1        0.2228
      2 N          61.5921   84.9070   10.7228 N.ar    1  UNL1       -0.1240
      3 N          61.5146   86.3230   10.2340 N.ar    1  UNL1       -0.1315
      4 C          62.2998   87.1833   11.1791 C.ar    1  UNL1        0.1616
      5 N          62.8626   86.2990   12.2521 N.ar    1  UNL1       -0.2918
      6 C          63.7006   86.8890   13.3473 C.3     1  UNL1        0.1303
      7 C          63.9759   88.3635   13.3696 C.3     1  UNL1        0.1186
      8 N          63.4131   89.2478   12.2966 N.am    1  UNL1       -0.2688
      9 C          63.6884   90.7221   12.3189 C.2     1  UNL1        0.2494
     10 O          63.1256   91.6064   11.2459 O.2     1  UNL1       -0.2699
     11 C          62.5751   88.6577   11.2014 C.3     1  UNL1        0.1343
     12 C          62.0123   89.5420   10.1284 C.3     1  UNL1        0.0298
     13 C          64.5264   91.3121   13.4141 C.ar    1  UNL1        0.0537
     14 C          65.8107   92.0121   13.0815 C.ar    1  UNL1        0.0068
     15 C          66.6487   92.6021   14.1769 C.ar    1  UNL1        0.0298
     16 C          66.2024   92.4922   15.6047 C.ar    1  UNL1        0.1401
     17 F          67.0405   93.0822   16.7000 F       1  UNL1       -0.2042
     18 C          64.9181   91.7922   15.9372 C.ar    1  UNL1        0.0298
     19 C          64.0801   91.2022   14.8420 C.ar    1  UNL1        0.0068
     20 C          62.7554   79.8986   13.6538 C.3     1  UNL1        0.0773
     21 C          62.9135   81.3875   13.5651 C.ar    1  UNL1        0.1813
     22 N          63.6460   82.2562   14.5444 N.ar    1  UNL1       -0.0601
     23 O          63.5521   83.6749   14.0660 O.2     1  UNL1       -0.3295
     24 C          62.7618   83.6829   12.7912 C.ar    1  UNL1        0.2958
     25 N          62.3671   82.2692   12.4816 N.ar    1  UNL1       -0.1885
@<TRIPOS>BOND
     1    20    21    1
     2    21    22   ar
     3    22    23   ar
     4    23    24   ar
     5    24     1    1
     6     1     2   ar
     7     2     3   ar
     8     3     4   ar
     9     4     5   ar
    10     5     6    1
    11     6     7    1
    12     7     8    1
    13     8     9   am
    14     9    10    2
    15     9    13    1
    16    13    14   ar
    17    14    15   ar
    18    15    16   ar
    19    16    17    1
    20    16    18   ar
    21    18    19   ar
    22     8    11    1
    23    11    12    1
    24    24    25   ar
    25    25    21   ar
    26     5     1   ar
    27    19    13   ar
    28    11     4    1
@<TRIPOS>MOLECULE
*****
 25 28 0 0 0
SMALL
GASTEIGER

@<TRIPOS>ATOM
      1 C          61.0675   87.9055   10.3488 C.ar    1  UNL1        0.2228
      2 N          61.0733   86.7339   11.2854 N.ar    1  UNL1       -0.1240
      3 N          62.0569   87.0211   12.3808 N.ar    1  UNL1       -0.1315
      4 C          62.6590   88.3702   12.1212 C.ar    1  UNL1        0.1616
      5 N          62.0475   88.9168   10.8653 N.ar    1  UNL1       -0.2918
      6 C          62.4621   90.2648   10.3544 C.3     1  UNL1        0.1303
      7 C          63.4882   91.0662   11.0993 C.3     1  UNL1        0.1186
      8 N          64.0997   90.5196   12.3552 N.am    1  UNL1       -0.2688
      9 C          65.1258   91.3210   13.1001 C.2     1  UNL1        0.2494
     10 O          65.7373   90.7744   14.3560 O.2     1  UNL1       -0.2699
     11 C          63.6851   89.1716   12.8661 C.3     1  UNL1        0.1343
     12 C          64.2966   88.6250   14.1220 C.3     1  UNL1        0.0298
     13 C          65.5404   92.6689   12.5891 C.ar    1  UNL1        0.0537
     14 C          65.3317   93.0206   11.1459 C.ar    1  UNL1        0.0068
     15 C          65.7463   94.3686   10.6350 C.ar    1  UNL1        0.0298
     16 C          66.3695   95.3649   11.5672 C.ar    1  UNL1        0.1401
     17 F          66.7841   96.7129   11.0562 F       1  UNL1       -0.2042
     18 C          66.5781   95.0132   13.0104 C.ar    1  UNL1        0.0298
     19 C          66.1636   93.6653   13.5213 C.ar    1  UNL1        0.0068
     20 C          58.8472   89.8667    5.9779 C.3     1  UNL1        0.0773
     21 C          59.2083   88.9434    7.1035 C.ar    1  UNL1        0.1813
     22 N          58.6684   87.5603    7.3171 N.ar    1  UNL1       -0.0601
     23 O          59.2992   87.0032    8.5589 O.2     1  UNL1       -0.3295
     24 C          60.2289   88.0419    9.1126 C.ar    1  UNL1        0.2958
     25 N          60.1727   89.2411    8.2132 N.ar    1  UNL1       -0.1885
@<TRIPOS>BOND
     1    20    21    1
     2    21    22   ar
     3    22    23   ar
     4    23    24   ar
     5    24     1    1
     6     1     2   ar
     7     2     3   ar
     8     3     4   ar
     9     4     5   ar
    10     5     6    1
    11     6     7    1
    12     7     8    1
    13     8     9   am
    14     9    10    2
    15     9    13    1
    16    13    14   ar
    17    14    15   ar
    18    15    16   ar
    19    16    17    1
    20    16    18   ar
    21    18    19   ar
    22     8    11    1
    23    11    12    1
    24    24    25   ar
    25    25    21   ar
    26     5     1   ar
    27    19    13   ar
    28    11     4    1
@<TRIPOS>MOLECULE
*****
 25 28 0 0 0
SMALL
GASTEIGER

@<TRIPOS>ATOM
      1 C          61.1697   86.0919    7.9736 C.ar    1  UNL1        0.2228
      2 N          61.8394   85.1529    7.0146 N.ar    1  UNL1       -0.1240
      3 N          62.7968   84.3002    7.7932 N.ar    1  UNL1       -0.1315
      4 C          62.7187   84.7121    9.2334 C.ar    1  UNL1        0.1616
      5 N          61.7131   85.8195    9.3449 N.ar    1  UNL1       -0.2918
      6 C          61.4222   86.4367   10.6807 C.3     1  UNL1        0.1303
      7 C          62.1369   85.9465   11.9051 C.3     1  UNL1        0.1186
      8 N          63.1425   84.8391   11.7936 N.am    1  UNL1       -0.2688
      9 C          63.8572   84.3489   13.0178 C.2     1  UNL1        0.2494
     10 O          64.8628   83.2415   12.9063 O.2     1  UNL1       -0.2699
     11 C          63.4334   84.2219   10.4577 C.3     1  UNL1        0.1343
     12 C          64.4390   83.1145   10.3462 C.3     1  UNL1        0.0298
     13 C          63.5663   84.9662   14.3536 C.ar    1  UNL1        0.0537
     14 C          62.5772   84.3210   15.2785 C.ar    1  UNL1        0.0068
     15 C          62.2863   84.9382   16.6144 C.ar    1  UNL1        0.0298
     16 C          62.9845   86.2006   17.0253 C.ar    1  UNL1        0.1401
     17 F          62.6936   86.8179   18.3611 F       1  UNL1       -0.2042
     18 C          63.9736   86.8458   16.1003 C.ar    1  UNL1        0.0298
     19 C          64.2645   86.2286   14.7646 C.ar    1  UNL1        0.0068
     20 C          58.8658   90.4515    6.0852 C.3     1  UNL1        0.0773
     21 C          59.0788   89.1264    6.7549 C.ar    1  UNL1        0.1813
     22 N          58.0206   88.2903    7.4117 N.ar    1  UNL1       -0.0601
     23 O          58.6751   87.0518    7.9482 O.2     1  UNL1       -0.3295
     24 C          60.1377   87.1225    7.6229 C.ar    1  UNL1        0.2958
     25 N          60.3872   88.4046    6.8855 N.ar    1  UNL1       -0.1885
@<TRIPOS>BOND
     1    20    21    1
     2    21    22   ar
     3    22    23   ar
     4    23    24   ar
     5    24     1    1
     6     1     2   ar
     7     2     3   ar
     8     3     4   ar
     9     4     5   ar
    10     5     6    1
    11     6     7    1
    12     7     8    1
    13     8     9   am
    14     9    10    2
    15     9    13    1
    16    13    14   ar
    17    14    15   ar
    18    15    16   ar
    19    16    17    1
    20    16    18   ar
    21    18    19   ar
    22     8    11    1
    23    11    12    1
    24    24    25   ar
    25    25    21   ar
    26     5     1   ar
    27    19    13   ar
    28    11     4    1
@<TRIPOS>MOLECULE
*****
 25 28 0 0 0
SMALL
GASTEIGER

@<TRIPOS>ATOM
      1 C          63.5510   83.9321   14.3583 C.ar    1  UNL1        0.2228
      2 N          64.4755   84.5368   15.3730 N.ar    1  UNL1       -0.1240
      3 N          64.6161   85.9970   15.0598 N.ar    1  UNL1       -0.1315
      4 C          63.7785   86.2947   13.8516 C.ar    1  UNL1        0.1616
      5 N          63.1202   85.0185   13.4180 N.ar    1  UNL1       -0.2918
      6 C          62.2136   85.0105   12.2231 C.3     1  UNL1        0.1303
      7 C          61.9653   86.2789   11.4616 C.3     1  UNL1        0.1186
      8 N          62.6235   87.5551   11.8951 N.am    1  UNL1       -0.2688
      9 C          62.3752   88.8233   11.1337 C.2     1  UNL1        0.2494
     10 O          63.0335   90.0995   11.5672 O.2     1  UNL1       -0.2699
     11 C          63.5302   87.5630   13.0902 C.3     1  UNL1        0.1343
     12 C          64.1885   88.8392   13.5237 C.3     1  UNL1        0.0298
     13 C          61.4686   88.8154    9.9388 C.ar    1  UNL1        0.0537
     14 C          61.3261   87.5708    9.1137 C.ar    1  UNL1        0.0068
     15 C          60.4195   87.5629    7.9187 C.ar    1  UNL1        0.0298
     16 C          59.6553   88.7995    7.5488 C.ar    1  UNL1        0.1401
     17 F          58.7487   88.7916    6.3538 F       1  UNL1       -0.2042
     18 C          59.7978   90.0441    8.3739 C.ar    1  UNL1        0.0298
     19 C          60.7044   90.0520    9.5688 C.ar    1  UNL1        0.0068
     20 C          60.5823   79.5762   14.0523 C.3     1  UNL1        0.0773
     21 C          61.7664   80.4914   14.1544 C.ar    1  UNL1        0.1813
     22 N          63.2029   80.0681   14.2409 N.ar    1  UNL1       -0.0601
     23 O          64.0463   81.3055   14.3279 O.2     1  UNL1       -0.3295
     24 C          63.1310   82.4935   14.2951 C.ar    1  UNL1        0.2958
     25 N          61.7220   81.9903   14.1878 N.ar    1  UNL1       -0.1885
@<TRIPOS>BOND
     1    20    21    1
     2    21    22   ar
     3    22    23   ar
     4    23    24   ar
     5    24     1    1
     6     1     2   ar
     7     2     3   ar
     8     3     4   ar
     9     4     5   ar
    10     5     6    1
    11     6     7    1
    12     7     8    1
    13     8     9   am
    14     9    10    2
    15     9    13    1
    16    13    14   ar
    17    14    15   ar
    18    15    16   ar
    19    16    17    1
    20    16    18   ar
    21    18    19   ar
    22     8    11    1
    23    11    12    1
    24    24    25   ar
    25    25    21   ar
    26     5     1   ar
    27    19    13   ar
    28    11     4    1
@<TRIPOS>MOLECULE
*****
 25 28 0 0 0
SMALL
GASTEIGER

@<TRIPOS>ATOM
      1 C          45.4937   73.1627   18.7693 C.ar    1  UNL1        0.2228
      2 N          45.5433   72.8560   20.2368 N.ar    1  UNL1       -0.1240
      3 N          45.5075   74.1565   20.9835 N.ar    1  UNL1       -0.1315
      4 C          45.4359   75.2668   19.9776 C.ar    1  UNL1        0.1616
      5 N          45.4273   74.6527   18.6091 N.ar    1  UNL1       -0.2918
      6 C          45.3602   75.5294   17.3939 C.3     1  UNL1        0.1303
      7 C          45.3016   77.0205   17.5472 C.3     1  UNL1        0.1186
      8 N          45.3101   77.6347   18.9156 N.am    1  UNL1       -0.2688
      9 C          45.2516   79.1256   19.0689 C.2     1  UNL1        0.2494
     10 O          45.2601   79.7398   20.4374 O.2     1  UNL1       -0.2699
     11 C          45.3773   76.7578   20.1308 C.3     1  UNL1        0.1343
     12 C          45.3858   77.3720   21.4993 C.3     1  UNL1        0.0298
     13 C          45.1844   80.0024   17.8538 C.ar    1  UNL1        0.0537
     14 C          43.9574   80.8233   17.5880 C.ar    1  UNL1        0.0068
     15 C          43.8903   81.7001   16.3728 C.ar    1  UNL1        0.0298
     16 C          45.0502   81.7560   15.4233 C.ar    1  UNL1        0.1401
     17 F          44.9831   82.6328   14.2081 F       1  UNL1       -0.2042
     18 C          46.2772   80.9352   15.6891 C.ar    1  UNL1        0.0298
     19 C          46.3444   80.0584   16.9042 C.ar    1  UNL1        0.0068
     20 C          44.3459   70.6085   14.2928 C.3     1  UNL1        0.0773
     21 C          44.9804   70.9822   15.5996 C.ar    1  UNL1        0.1813
     22 N          46.0795   70.2324   16.2923 N.ar    1  UNL1       -0.0601
     23 O          46.4056   70.9580   17.5640 O.2     1  UNL1       -0.3295
     24 C          45.5080   72.1562   17.6573 C.ar    1  UNL1        0.2958
     25 N          44.6272   72.1711   16.4432 N.ar    1  UNL1       -0.1885
@<TRIPOS>BOND
     1    20    21    1
     2    21    22   ar
     3    22    23   ar
     4    23    24   ar
     5    24     1    1
     6     1     2   ar
     7     2     3   ar
     8     3     4   ar
     9     4     5   ar
    10     5     6    1
    11     6     7    1
    12     7     8    1
    13     8     9   am
    14     9    10    2
    15     9    13    1
    16    13    14   ar
    17    14    15   ar
    18    15    16   ar
    19    16    17    1
    20    16    18   ar
    21    18    19   ar
    22     8    11    1
    23    11    12    1
    24    24    25   ar
    25    25    21   ar
    26     5     1   ar
    27    19    13   ar
    28    11     4    1
