@<TRIPOS>MOLECULE
*****
 38 42 0 0 0
SMALL
GASTEIGER

@<TRIPOS>ATOM
      1 C          62.4853   85.2860   11.4538 C.ar    1  UNL1        0.1633
      2 N          63.2745   86.1605   12.3825 N.ar    1  UNL1       -0.2294
      3 C          63.1997   87.6530   12.2521 C.ar    1  UNL1        0.0795
      4 C          62.3358   88.2710   11.1930 C.ar    1  UNL1        0.0264
      5 C          61.5467   87.3965   10.2642 C.ar    1  UNL1        0.1306
      6 N          61.6215   85.9040   10.3946 N.ar    1  UNL1       -0.2122
      7 C          62.2611   89.7634   11.0626 C.3     1  UNL1        0.0520
      8 C          63.0502   90.6378   11.9913 C.3     1  UNL1        0.0988
      9 N          63.9141   90.0198   13.0505 N.pl3   1  UNL1       -0.2722
     10 C          63.9888   88.5274   13.1809 C.3     1  UNL1        0.1393
     11 N          60.6828   88.0144    9.2051 N.pl3   1  UNL1       -0.2900
     12 C          60.2978   89.4610    9.3010 C.3     1  UNL1        0.1242
     13 C          59.4339   90.0790    8.2418 C.3     1  UNL1        0.1636
     14 O          58.9551   89.2504    7.0867 O.3     1  UNL1       -0.3502
     15 C          59.3401   87.8038    6.9908 C.3     1  UNL1        0.1618
     16 C          60.2040   87.1858    8.0499 C.3     1  UNL1        0.1038
     17 C          60.5890   85.7393    7.9540 C.3     1  UNL1        0.0241
     18 C          64.7032   90.8943   13.9793 C.ar    1  UNL1        0.2206
     19 N          64.1480   91.2513   15.3262 N.ar    1  UNL1       -0.2097
     20 C          64.9372   92.1258   16.2550 C.ar    1  UNL1        0.1330
     21 C          66.2815   92.6433   15.8367 C.ar    1  UNL1        0.1784
     22 F          67.0706   93.5178   16.7654 F       1  UNL1       -0.2009
     23 C          66.8367   92.2863   14.4897 C.ar    1  UNL1        0.1330
     24 N          66.0476   91.4118   13.5610 N.ar    1  UNL1       -0.2097
     25 C          62.7096   80.8087   11.8448 C.ar    1  UNL1        0.0516
     26 C          63.2120   81.4789   10.6005 C.ar    1  UNL1        0.0148
     27 C          63.1372   82.9714   10.4702 C.ar    1  UNL1        0.0043
     28 C          62.5601   83.7935   11.5841 C.ar    1  UNL1        0.0359
     29 C          62.0577   83.1233   12.8284 C.ar    1  UNL1        0.0043
     30 C          62.1324   81.6309   12.9587 C.ar    1  UNL1        0.0148
     31 N          63.1078   76.9765   10.8929 N.am    1  UNL1       -0.2887
     32 C          63.0331   78.4690   10.7626 C.2     1  UNL1        0.3045
     33 O          63.2071   79.1142    9.4197 O.2     1  UNL1       -0.2525
     34 N          62.7843   79.3162   11.9752 N.am    1  UNL1       -0.2683
     35 H          62.9936   76.5530   11.7743 H       1  UNL1        0.1510
     36 H          62.6701   78.8927   12.8565 H       1  UNL1        0.1564
     37 C          64.6904   76.1731    8.9956 C.3     1  UNL1        0.0230
     38 C          63.3566   76.1293    9.6803 C.3     1  UNL1        0.0910
@<TRIPOS>BOND
     1    37    38    1
     2    38    31    1
     3    31    32   am
     4    32    33    2
     5    32    34   am
     6    34    25    1
     7    25    26   ar
     8    26    27   ar
     9    27    28   ar
    10    28     1    1
    11     1     2   ar
    12     2     3   ar
    13     3     4   ar
    14     4     5   ar
    15     5    11    1
    16    11    12    1
    17    12    13    1
    18    13    14    1
    19    14    15    1
    20    15    16    1
    21    16    17    1
    22     5     6   ar
    23     4     7    1
    24     7     8    1
    25     8     9    1
    26     9    18    1
    27    18    19   ar
    28    19    20   ar
    29    20    21   ar
    30    21    22    1
    31    21    23   ar
    32    23    24   ar
    33     9    10    1
    34    28    29   ar
    35    29    30   ar
    36    30    25   ar
    37     6     1   ar
    38    24    18   ar
    39    10     3    1
    40    16    11    1
    41    31    35    1
    42    34    36    1
@<TRIPOS>MOLECULE
*****
 38 42 0 0 0
SMALL
GASTEIGER

@<TRIPOS>ATOM
      1 C          61.3053   88.7127    9.4820 C.ar    1  UNL1        0.1633
      2 N          61.2722   87.2359    9.7421 N.ar    1  UNL1       -0.2294
      3 C          61.9618   86.6712   10.9487 C.ar    1  UNL1        0.0795
      4 C          62.6845   87.5834   11.8950 C.ar    1  UNL1        0.0264
      5 C          62.7176   89.0604   11.6347 C.ar    1  UNL1        0.1306
      6 N          62.0281   89.6250   10.4282 N.ar    1  UNL1       -0.2122
      7 C          63.3741   87.0188   13.1015 C.3     1  UNL1        0.0520
      8 C          63.3410   85.5420   13.3616 C.3     1  UNL1        0.0988
      9 N          62.6182   84.6297   12.4154 N.pl3   1  UNL1       -0.2722
     10 C          61.9287   85.1943   11.2089 C.3     1  UNL1        0.1393
     11 N          63.4404   89.9726   12.5810 N.pl3   1  UNL1       -0.2900
     12 C          63.4613   89.6663   14.0492 C.3     1  UNL1        0.1242
     13 C          64.1840   90.5785   14.9955 C.3     1  UNL1        0.1636
     14 O          64.8858   91.7971   14.4736 O.3     1  UNL1       -0.3502
     15 C          64.8649   92.1035   13.0053 C.3     1  UNL1        0.1618
     16 C          64.1422   91.1913   12.0590 C.3     1  UNL1        0.1038
     17 C          64.1213   91.4976   10.5908 C.3     1  UNL1        0.0241
     18 C          62.5851   83.1528   12.6756 C.ar    1  UNL1        0.2206
     19 N          63.0256   82.1934   11.6100 N.ar    1  UNL1       -0.2097
     20 C          62.9925   80.7165   11.8702 C.ar    1  UNL1        0.1330
     21 C          62.5189   80.1990   13.1961 C.ar    1  UNL1        0.1784
     22 F          62.4857   78.7222   13.4564 F       1  UNL1       -0.2009
     23 C          62.0784   81.1585   14.2617 C.ar    1  UNL1        0.1330
     24 N          62.1115   82.6353   14.0015 N.ar    1  UNL1       -0.2097
     25 C          59.2367   90.4068    5.8625 C.ar    1  UNL1        0.0516
     26 C          60.4998   91.0380    6.3683 C.ar    1  UNL1        0.0148
     27 C          61.1894   90.4733    7.5748 C.ar    1  UNL1        0.0043
     28 C          60.6157   89.2774    8.2754 C.ar    1  UNL1        0.0359
     29 C          59.3526   88.6462    7.7695 C.ar    1  UNL1        0.0043
     30 C          58.6630   89.2109    6.5631 C.ar    1  UNL1        0.0148
     31 N          58.6166   92.4025    2.4886 N.am    1  UNL1       -0.2887
     32 C          59.3062   91.8379    3.6951 C.2     1  UNL1        0.3045
     33 O          60.7549   92.1396    3.9409 O.2     1  UNL1       -0.2525
     34 N          58.5471   90.9715    4.6559 N.am    1  UNL1       -0.2683
     35 H          57.6658   92.2045    2.3274 H       1  UNL1        0.1510
     36 H          57.5963   90.7734    4.4947 H       1  UNL1        0.1564
     37 C          60.1620   92.6434    0.4141 C.3     1  UNL1        0.0230
     38 C          59.3757   93.2689    1.5278 C.3     1  UNL1        0.0910
@<TRIPOS>BOND
     1    37    38    1
     2    38    31    1
     3    31    32   am
     4    32    33    2
     5    32    34   am
     6    34    25    1
     7    25    26   ar
     8    26    27   ar
     9    27    28   ar
    10    28     1    1
    11     1     2   ar
    12     2     3   ar
    13     3     4   ar
    14     4     5   ar
    15     5    11    1
    16    11    12    1
    17    12    13    1
    18    13    14    1
    19    14    15    1
    20    15    16    1
    21    16    17    1
    22     5     6   ar
    23     4     7    1
    24     7     8    1
    25     8     9    1
    26     9    18    1
    27    18    19   ar
    28    19    20   ar
    29    20    21   ar
    30    21    22    1
    31    21    23   ar
    32    23    24   ar
    33     9    10    1
    34    28    29   ar
    35    29    30   ar
    36    30    25   ar
    37     6     1   ar
    38    24    18   ar
    39    10     3    1
    40    16    11    1
    41    31    35    1
    42    34    36    1
@<TRIPOS>MOLECULE
*****
 38 42 0 0 0
SMALL
GASTEIGER

@<TRIPOS>ATOM
      1 C          63.5037   89.0390   12.4436 C.ar    1  UNL1        0.1633
      2 N          63.6548   87.6313   12.9392 N.ar    1  UNL1       -0.2294
      3 C          62.9235   86.5134   12.2568 C.ar    1  UNL1        0.0795
      4 C          62.0412   86.8032   11.0789 C.ar    1  UNL1        0.0264
      5 C          61.8901   88.2109   10.5833 C.ar    1  UNL1        0.1306
      6 N          62.6214   89.3288   11.2657 N.ar    1  UNL1       -0.2122
      7 C          61.3099   85.6854   10.3965 C.3     1  UNL1        0.0520
      8 C          61.4610   84.2777   10.8921 C.3     1  UNL1        0.0988
      9 N          62.3433   83.9879   12.0700 N.pl3   1  UNL1       -0.2722
     10 C          63.0746   85.1057   12.7524 C.3     1  UNL1        0.1393
     11 N          61.0078   88.5008    9.4054 N.pl3   1  UNL1       -0.2900
     12 C          60.9177   87.5178    8.2760 C.3     1  UNL1        0.1242
     13 C          60.0354   87.8076    7.0980 C.3     1  UNL1        0.1636
     14 O          59.2431   89.0804    7.0495 O.3     1  UNL1       -0.3502
     15 C          59.3332   90.0634    8.1790 C.3     1  UNL1        0.1618
     16 C          60.2155   89.7736    9.3569 C.3     1  UNL1        0.1038
     17 C          60.3057   90.7566   10.4864 C.3     1  UNL1        0.0241
     18 C          62.4944   82.5801   12.5656 C.ar    1  UNL1        0.2206
     19 N          62.4070   82.2886   14.0343 N.ar    1  UNL1       -0.2097
     20 C          62.5581   80.8809   14.5299 C.ar    1  UNL1        0.1330
     21 C          62.7965   79.7647   13.5566 C.ar    1  UNL1        0.1784
     22 F          62.9475   78.3570   14.0521 F       1  UNL1       -0.2009
     23 C          62.8838   80.0562   12.0878 C.ar    1  UNL1        0.1330
     24 N          62.7327   81.4639   11.5923 N.ar    1  UNL1       -0.2097
     25 C          65.6974   92.3926   14.4907 C.ar    1  UNL1        0.0516
     26 C          65.2641   91.1903   15.2760 C.ar    1  UNL1        0.0148
     27 C          64.5329   90.0725   14.5937 C.ar    1  UNL1        0.0043
     28 C          64.2350   90.1569   13.1260 C.ar    1  UNL1        0.0359
     29 C          64.6683   91.3591   12.3406 C.ar    1  UNL1        0.0043
     30 C          65.3995   92.4770   13.0230 C.ar    1  UNL1        0.0148
     31 N          68.6338   94.5149   16.1104 N.am    1  UNL1       -0.2887
     32 C          67.9025   93.3971   15.4281 C.2     1  UNL1        0.3045
     33 O          68.6451   92.1658   15.0008 O.2     1  UNL1       -0.2525
     34 N          66.4287   93.5105   15.1731 N.am    1  UNL1       -0.2683
     35 H          68.1465   95.3231   16.3909 H       1  UNL1        0.1510
     36 H          65.9414   94.3186   15.4535 H       1  UNL1        0.1564
     37 C          71.0840   95.0195   15.4090 C.3     1  UNL1        0.0230
     38 C          70.1076   94.4015   16.3654 C.3     1  UNL1        0.0910
@<TRIPOS>BOND
     1    37    38    1
     2    38    31    1
     3    31    32   am
     4    32    33    2
     5    32    34   am
     6    34    25    1
     7    25    26   ar
     8    26    27   ar
     9    27    28   ar
    10    28     1    1
    11     1     2   ar
    12     2     3   ar
    13     3     4   ar
    14     4     5   ar
    15     5    11    1
    16    11    12    1
    17    12    13    1
    18    13    14    1
    19    14    15    1
    20    15    16    1
    21    16    17    1
    22     5     6   ar
    23     4     7    1
    24     7     8    1
    25     8     9    1
    26     9    18    1
    27    18    19   ar
    28    19    20   ar
    29    20    21   ar
    30    21    22    1
    31    21    23   ar
    32    23    24   ar
    33     9    10    1
    34    28    29   ar
    35    29    30   ar
    36    30    25   ar
    37     6     1   ar
    38    24    18   ar
    39    10     3    1
    40    16    11    1
    41    31    35    1
    42    34    36    1
@<TRIPOS>MOLECULE
*****
 38 42 0 0 0
SMALL
GASTEIGER

@<TRIPOS>ATOM
      1 C          61.7994   88.0703   10.9708 C.ar    1  UNL1        0.1633
      2 N          62.6239   89.1854   11.5423 N.ar    1  UNL1       -0.2294
      3 C          63.5301   88.9262   12.7092 C.ar    1  UNL1        0.0795
      4 C          63.6117   87.5518   13.3046 C.ar    1  UNL1        0.0264
      5 C          62.7870   86.4367   12.7330 C.ar    1  UNL1        0.1306
      6 N          61.8809   86.6960   11.5661 N.ar    1  UNL1       -0.2122
      7 C          64.5178   87.2925   14.4715 C.3     1  UNL1        0.0520
      8 C          65.3423   88.4076   15.0430 C.3     1  UNL1        0.0988
      9 N          65.2608   89.7819   14.4476 N.pl3   1  UNL1       -0.2722
     10 C          64.3546   90.0412   13.2808 C.3     1  UNL1        0.1393
     11 N          62.8686   85.0623   13.3284 N.pl3   1  UNL1       -0.2900
     12 C          62.6089   84.8624   14.7921 C.3     1  UNL1        0.1242
     13 C          62.6905   83.4880   15.3875 C.3     1  UNL1        0.1636
     14 O          63.0318   82.3136   14.5191 O.3     1  UNL1       -0.3502
     15 C          63.2915   82.5134   13.0553 C.3     1  UNL1        0.1618
     16 C          63.2099   83.8878   12.4599 C.3     1  UNL1        0.1038
     17 C          63.4696   84.0877   10.9962 C.3     1  UNL1        0.0241
     18 C          66.0854   90.8970   15.0192 C.ar    1  UNL1        0.2206
     19 N          65.4265   91.9871   15.8114 N.ar    1  UNL1       -0.2097
     20 C          66.2511   93.1022   16.3830 C.ar    1  UNL1        0.1330
     21 C          67.7346   93.1272   16.1624 C.ar    1  UNL1        0.1784
     22 F          68.5592   94.2422   16.7339 F       1  UNL1       -0.2009
     23 C          68.3935   92.0370   15.3701 C.ar    1  UNL1        0.1330
     24 N          67.5688   90.9220   14.7986 N.ar    1  UNL1       -0.2097
     25 C          59.0809   88.8482    7.4701 C.ar    1  UNL1        0.0516
     26 C          59.6067   89.9955    8.2807 C.ar    1  UNL1        0.0148
     27 C          60.5129   89.7362    9.4476 C.ar    1  UNL1        0.0043
     28 C          60.8932   88.3296    9.8038 C.ar    1  UNL1        0.0359
     29 C          60.3674   87.1823    8.9932 C.ar    1  UNL1        0.0043
     30 C          59.4612   87.4416    7.8263 C.ar    1  UNL1        0.0148
     31 N          57.3916   90.6448    4.3606 N.am    1  UNL1       -0.2887
     32 C          58.2977   90.3855    5.5275 C.2     1  UNL1        0.3045
     33 O          59.3268   91.4043    5.9189 O.2     1  UNL1       -0.2525
     34 N          58.1747   89.1075    6.3031 N.am    1  UNL1       -0.2683
     35 H          56.7162   89.9761    4.1038 H       1  UNL1        0.1510
     36 H          57.4993   88.4388    6.0463 H       1  UNL1        0.1564
     37 C          58.8648   92.4075    3.1473 C.3     1  UNL1        0.0230
     38 C          57.5145   91.9228    3.5851 C.3     1  UNL1        0.0910
@<TRIPOS>BOND
     1    37    38    1
     2    38    31    1
     3    31    32   am
     4    32    33    2
     5    32    34   am
     6    34    25    1
     7    25    26   ar
     8    26    27   ar
     9    27    28   ar
    10    28     1    1
    11     1     2   ar
    12     2     3   ar
    13     3     4   ar
    14     4     5   ar
    15     5    11    1
    16    11    12    1
    17    12    13    1
    18    13    14    1
    19    14    15    1
    20    15    16    1
    21    16    17    1
    22     5     6   ar
    23     4     7    1
    24     7     8    1
    25     8     9    1
    26     9    18    1
    27    18    19   ar
    28    19    20   ar
    29    20    21   ar
    30    21    22    1
    31    21    23   ar
    32    23    24   ar
    33     9    10    1
    34    28    29   ar
    35    29    30   ar
    36    30    25   ar
    37     6     1   ar
    38    24    18   ar
    39    10     3    1
    40    16    11    1
    41    31    35    1
    42    34    36    1
@<TRIPOS>MOLECULE
*****
 38 42 0 0 0
SMALL
GASTEIGER

@<TRIPOS>ATOM
      1 C          61.3978   87.2271    9.7576 C.ar    1  UNL1        0.1633
      2 N          61.4163   85.7367    9.5895 N.ar    1  UNL1       -0.2294
      3 C          62.1017   84.8754   10.6087 C.ar    1  UNL1        0.0795
      4 C          62.7685   85.5046   11.7958 C.ar    1  UNL1        0.0264
      5 C          62.7500   86.9951   11.9639 C.ar    1  UNL1        0.1306
      6 N          62.0646   87.8563   10.9448 N.ar    1  UNL1       -0.2122
      7 C          63.4539   84.6435   12.8149 C.3     1  UNL1        0.0520
      8 C          63.4724   83.1531   12.6468 C.3     1  UNL1        0.0988
      9 N          62.8056   82.5238   11.4597 N.pl3   1  UNL1       -0.2722
     10 C          62.1202   83.3850   10.4406 C.3     1  UNL1        0.1393
     11 N          63.4168   87.6244   13.1511 N.pl3   1  UNL1       -0.2900
     12 C          63.8596   86.7709   14.3024 C.3     1  UNL1        0.1242
     13 C          64.5264   87.4001   15.4896 C.3     1  UNL1        0.1636
     14 O          64.7504   88.8828   15.5255 O.3     1  UNL1       -0.3502
     15 C          64.3077   89.7364   14.3742 C.3     1  UNL1        0.1618
     16 C          63.6408   89.1071   13.1870 C.3     1  UNL1        0.1038
     17 C          63.1981   89.9606   12.0357 C.3     1  UNL1        0.0241
     18 C          62.8241   81.0333   11.2916 C.ar    1  UNL1        0.2206
     19 N          62.6270   80.1419   12.4817 N.ar    1  UNL1       -0.2097
     20 C          62.6456   78.6514   12.3136 C.ar    1  UNL1        0.1330
     21 C          62.8613   78.0524   10.9554 C.ar    1  UNL1        0.1784
     22 F          62.8798   76.5620   10.7873 F       1  UNL1       -0.2009
     23 C          63.0584   78.9440    9.7653 C.ar    1  UNL1        0.1330
     24 N          63.0399   80.4344    9.9334 N.ar    1  UNL1       -0.2097
     25 C          59.3417   89.8109    6.7004 C.ar    1  UNL1        0.0516
     26 C          60.0628   90.4432    7.8538 C.ar    1  UNL1        0.0148
     27 C          60.7481   89.5819    8.8728 C.ar    1  UNL1        0.0043
     28 C          60.7124   88.0884    8.7385 C.ar    1  UNL1        0.0359
     29 C          59.9914   87.4561    7.5851 C.ar    1  UNL1        0.0043
     30 C          59.3060   88.3173    6.5661 C.ar    1  UNL1        0.0148
     31 N          58.7819   92.2872    3.6500 N.am    1  UNL1       -0.2887
     32 C          59.4672   91.4259    4.6691 C.2     1  UNL1        0.3045
     33 O          60.9633   91.3184    4.6761 O.2     1  UNL1       -0.2525
     34 N          58.6564   90.6721    5.6813 N.am    1  UNL1       -0.2683
     35 H          57.7999   92.3577    3.6455 H       1  UNL1        0.1510
     36 H          57.6744   90.7427    5.6767 H       1  UNL1        0.1564
     37 C          59.2719   92.9180    1.1778 C.3     1  UNL1        0.0230
     38 C          59.5927   93.0409    2.6379 C.3     1  UNL1        0.0910
@<TRIPOS>BOND
     1    37    38    1
     2    38    31    1
     3    31    32   am
     4    32    33    2
     5    32    34   am
     6    34    25    1
     7    25    26   ar
     8    26    27   ar
     9    27    28   ar
    10    28     1    1
    11     1     2   ar
    12     2     3   ar
    13     3     4   ar
    14     4     5   ar
    15     5    11    1
    16    11    12    1
    17    12    13    1
    18    13    14    1
    19    14    15    1
    20    15    16    1
    21    16    17    1
    22     5     6   ar
    23     4     7    1
    24     7     8    1
    25     8     9    1
    26     9    18    1
    27    18    19   ar
    28    19    20   ar
    29    20    21   ar
    30    21    22    1
    31    21    23   ar
    32    23    24   ar
    33     9    10    1
    34    28    29   ar
    35    29    30   ar
    36    30    25   ar
    37     6     1   ar
    38    24    18   ar
    39    10     3    1
    40    16    11    1
    41    31    35    1
    42    34    36    1
@<TRIPOS>MOLECULE
*****
 38 42 0 0 0
SMALL
GASTEIGER

@<TRIPOS>ATOM
      1 C          62.4585   85.8900   12.5245 C.ar    1  UNL1        0.1633
      2 N          63.4004   86.7626   13.2999 N.ar    1  UNL1       -0.2294
      3 C          63.5658   88.2058   12.9257 C.ar    1  UNL1        0.0795
      4 C          62.7893   88.7762   11.7760 C.ar    1  UNL1        0.0264
      5 C          61.8474   87.9035   11.0006 C.ar    1  UNL1        0.1306
      6 N          61.6820   86.4604   11.3749 N.ar    1  UNL1       -0.2122
      7 C          62.9547   90.2193   11.4018 C.3     1  UNL1        0.0520
      8 C          63.8966   91.0920   12.1771 C.3     1  UNL1        0.0988
      9 N          64.6731   90.5215   13.3268 N.pl3   1  UNL1       -0.2722
     10 C          64.5077   89.0785   13.7010 C.3     1  UNL1        0.1393
     11 N          61.0709   88.4739    9.8510 N.pl3   1  UNL1       -0.2900
     12 C          60.5314   89.8712    9.9302 C.3     1  UNL1        0.1242
     13 C          59.7549   90.4417    8.7805 C.3     1  UNL1        0.1636
     14 O          59.5178   89.6147    7.5518 O.3     1  UNL1       -0.3502
     15 C          60.0573   88.2173    7.4726 C.3     1  UNL1        0.1618
     16 C          60.8338   87.6469    8.6222 C.3     1  UNL1        0.1038
     17 C          61.3733   86.2495    8.5430 C.3     1  UNL1        0.0241
     18 C          65.6150   91.3943   14.1021 C.ar    1  UNL1        0.2206
     19 N          66.9381   91.7810   13.5106 N.ar    1  UNL1       -0.2097
     20 C          67.8800   92.6538   14.2860 C.ar    1  UNL1        0.1330
     21 C          67.4988   93.1397   15.6529 C.ar    1  UNL1        0.1784
     22 F          68.4407   94.0124   16.4283 F       1  UNL1       -0.2009
     23 C          66.1757   92.7529   16.2445 C.ar    1  UNL1        0.1330
     24 N          65.2339   91.8802   15.4691 N.ar    1  UNL1       -0.2097
     25 C          61.9623   81.5606   13.6473 C.ar    1  UNL1        0.0516
     26 C          61.8391   82.6262   14.6958 C.ar    1  UNL1        0.0148
     27 C          62.0045   84.0693   14.3215 C.ar    1  UNL1        0.0043
     28 C          62.2931   84.4468   12.8988 C.ar    1  UNL1        0.0359
     29 C          62.4162   83.3812   11.8503 C.ar    1  UNL1        0.0043
     30 C          62.2508   81.9382   12.2246 C.ar    1  UNL1        0.0148
     31 N          60.2579   78.0988   14.5753 N.am    1  UNL1       -0.2887
     32 C          60.4233   79.5419   14.2011 C.2     1  UNL1        0.3045
     33 O          59.2152   80.4095   14.0063 O.2     1  UNL1       -0.2525
     34 N          61.7968   80.1175   14.0215 N.am    1  UNL1       -0.2683
     35 H          61.0508   77.5294   14.7031 H       1  UNL1        0.1510
     36 H          62.5897   79.5481   14.1494 H       1  UNL1        0.1564
     37 C          58.6953   76.2699   15.5568 C.3     1  UNL1        0.0230
     38 C          58.8844   77.5233   14.7548 C.3     1  UNL1        0.0910
@<TRIPOS>BOND
     1    37    38    1
     2    38    31    1
     3    31    32   am
     4    32    33    2
     5    32    34   am
     6    34    25    1
     7    25    26   ar
     8    26    27   ar
     9    27    28   ar
    10    28     1    1
    11     1     2   ar
    12     2     3   ar
    13     3     4   ar
    14     4     5   ar
    15     5    11    1
    16    11    12    1
    17    12    13    1
    18    13    14    1
    19    14    15    1
    20    15    16    1
    21    16    17    1
    22     5     6   ar
    23     4     7    1
    24     7     8    1
    25     8     9    1
    26     9    18    1
    27    18    19   ar
    28    19    20   ar
    29    20    21   ar
    30    21    22    1
    31    21    23   ar
    32    23    24   ar
    33     9    10    1
    34    28    29   ar
    35    29    30   ar
    36    30    25   ar
    37     6     1   ar
    38    24    18   ar
    39    10     3    1
    40    16    11    1
    41    31    35    1
    42    34    36    1
@<TRIPOS>MOLECULE
*****
 38 42 0 0 0
SMALL
GASTEIGER

@<TRIPOS>ATOM
      1 C          62.9250   86.0338   12.3538 C.ar    1  UNL1        0.1633
      2 N          63.8949   86.8459   13.1599 N.ar    1  UNL1       -0.2294
      3 C          63.9082   88.3406   13.0338 C.ar    1  UNL1        0.0795
      4 C          62.9516   89.0231   12.1015 C.ar    1  UNL1        0.0264
      5 C          61.9817   88.2109   11.2954 C.ar    1  UNL1        0.1306
      6 N          61.9684   86.7163   11.4215 N.ar    1  UNL1       -0.2122
      7 C          62.9648   90.5177   11.9754 C.3     1  UNL1        0.0520
      8 C          63.9346   91.3298   12.7815 C.3     1  UNL1        0.0988
      9 N          64.8912   90.6473   13.7138 N.pl3   1  UNL1       -0.2722
     10 C          64.8780   89.1527   13.8399 C.3     1  UNL1        0.1393
     11 N          61.0251   88.8934   10.3631 N.pl3   1  UNL1       -0.2900
     12 C          61.1689   88.7180    8.8804 C.3     1  UNL1        0.1242
     13 C          60.2123   89.4005    7.9481 C.3     1  UNL1        0.1636
     14 O          59.1119   90.2584    8.4986 O.3     1  UNL1       -0.3502
     15 C          58.9681   90.4339    9.9814 C.3     1  UNL1        0.1618
     16 C          59.9247   89.7514   10.9137 C.3     1  UNL1        0.1038
     17 C          59.7809   89.9268   12.3964 C.3     1  UNL1        0.0241
     18 C          65.8611   91.4594   14.5199 C.ar    1  UNL1        0.2206
     19 N          65.4091   92.1309   15.7828 N.ar    1  UNL1       -0.2097
     20 C          66.3790   92.9430   16.5889 C.ar    1  UNL1        0.1330
     21 C          67.8008   93.0837   16.1321 C.ar    1  UNL1        0.1784
     22 F          68.7707   93.8958   16.9382 F       1  UNL1       -0.2009
     23 C          68.2528   92.4122   14.8692 C.ar    1  UNL1        0.1330
     24 N          67.2829   91.6001   14.0631 N.ar    1  UNL1       -0.2097
     25 C          62.8852   81.5499   12.7322 C.ar    1  UNL1        0.0516
     26 C          62.4027   82.4027   13.8679 C.ar    1  UNL1        0.0148
     27 C          62.4160   83.8973   13.7417 C.ar    1  UNL1        0.0043
     28 C          62.9118   84.5391   12.4799 C.ar    1  UNL1        0.0359
     29 C          63.3943   83.6863   11.3442 C.ar    1  UNL1        0.0043
     30 C          63.3810   82.1917   11.4703 C.ar    1  UNL1        0.0148
     31 N          62.8072   77.7046   11.7537 N.am    1  UNL1       -0.2887
     32 C          62.8204   79.1992   11.6276 C.2     1  UNL1        0.3045
     33 O          62.7822   79.8378   10.2708 O.2     1  UNL1       -0.2525
     34 N          62.8719   80.0552   12.8583 N.am    1  UNL1       -0.2683
     35 H          62.8322   77.2855   12.6441 H       1  UNL1        0.1510
     36 H          62.8970   79.6361   13.7488 H       1  UNL1        0.1564
     37 C          64.0188   76.5233    9.7823 C.3     1  UNL1        0.0230
     38 C          62.7557   76.8486   10.5230 C.3     1  UNL1        0.0910
@<TRIPOS>BOND
     1    37    38    1
     2    38    31    1
     3    31    32   am
     4    32    33    2
     5    32    34   am
     6    34    25    1
     7    25    26   ar
     8    26    27   ar
     9    27    28   ar
    10    28     1    1
    11     1     2   ar
    12     2     3   ar
    13     3     4   ar
    14     4     5   ar
    15     5    11    1
    16    11    12    1
    17    12    13    1
    18    13    14    1
    19    14    15    1
    20    15    16    1
    21    16    17    1
    22     5     6   ar
    23     4     7    1
    24     7     8    1
    25     8     9    1
    26     9    18    1
    27    18    19   ar
    28    19    20   ar
    29    20    21   ar
    30    21    22    1
    31    21    23   ar
    32    23    24   ar
    33     9    10    1
    34    28    29   ar
    35    29    30   ar
    36    30    25   ar
    37     6     1   ar
    38    24    18   ar
    39    10     3    1
    40    16    11    1
    41    31    35    1
    42    34    36    1
