@<TRIPOS>MOLECULE
*****
 35 39 0 0 0
SMALL
GASTEIGER

@<TRIPOS>ATOM
      1 C          62.8915   89.5125   12.4496 C.2     1  UNL1        0.2463
      2 O          62.4046   90.9180   12.2561 O.2     1  UNL1       -0.2730
      3 N          62.3323   88.4027   11.6095 N.am    1  UNL1       -0.2781
      4 C          61.2862   88.6985   10.5760 C.3     1  UNL1        0.0935
      5 C          60.7270   87.5887    9.7359 C.3     1  UNL1        0.0219
      6 C          61.2139   86.1832    9.9293 C.3     1  UNL1        0.0078
      7 C          62.2601   85.8874   10.9629 C.3     1  UNL1        0.0419
      8 C          62.8193   86.9972   11.8029 C.3     1  UNL1        0.0953
      9 C          62.7470   84.4820   11.1563 C.ar    1  UNL1       -0.0209
     10 C          63.9844   84.0130   10.4498 C.ar    1  UNL1       -0.0042
     11 C          64.4713   82.6075   10.6433 C.ar    1  UNL1       -0.0003
     12 C          63.7210   81.6709   11.5432 C.ar    1  UNL1       -0.0000
     13 C          62.4836   82.1399   12.2496 C.ar    1  UNL1       -0.0003
     14 C          61.9966   83.5454   12.0562 C.ar    1  UNL1       -0.0042
     15 C          63.9377   89.2167   13.4831 C.3     1  UNL1        0.1835
     16 O          61.8294   89.3431   15.6137 O.2     1  UNL1       -0.2705
     17 C          63.0580   90.1968   15.7227 C.2     1  UNL1        0.2744
     18 C          63.2324   91.1136   16.8969 C.3     1  UNL1        0.2900
     19 O          64.4610   91.9673   17.0059 O.3     1  UNL1       -0.4643
     20 C          65.5151   91.9041   15.9407 C.ar    1  UNL1        0.1537
     21 C          66.7437   92.7578   16.0497 C.ar    1  UNL1        0.0504
     22 C          67.7978   92.6946   14.9844 C.ar    1  UNL1        0.0713
     23 CL         69.0263   93.5483   15.0934 Cl      1  UNL1       -0.0813
     24 C          67.6233   91.7777   13.8101 C.ar    1  UNL1        0.0696
     25 CL         68.6774   91.7146   12.7448 Cl      1  UNL1       -0.0813
     26 C          66.3948   90.9241   13.7011 C.ar    1  UNL1        0.0302
     27 C          65.3406   90.9873   14.7664 C.ar    1  UNL1        0.0894
     28 N          64.1121   90.1336   14.6574 N.am    1  UNL1       -0.2439
     29 C          63.8654   86.7014   12.8364 C.3     1  UNL1        0.0926
     30 N          63.6545   85.5888   13.8201 N.3     1  UNL1       -0.2670
     31 C          64.7118   84.5412   14.0055 C.3     1  UNL1        0.1047
     32 C          64.5009   83.4286   14.9892 C.3     1  UNL1        0.1595
     33 O          63.2325   83.3636   15.7875 O.3     1  UNL1       -0.3508
     34 C          62.1752   84.4113   15.6020 C.3     1  UNL1        0.1595
     35 C          62.3862   85.5240   14.6183 C.3     1  UNL1        0.1047
@<TRIPOS>BOND
     1    16    17    2
     2    17    18    1
     3    18    19    1
     4    19    20    1
     5    20    21   ar
     6    21    22   ar
     7    22    23    1
     8    22    24   ar
     9    24    25    1
    10    24    26   ar
    11    26    27   ar
    12    27    28    1
    13    28    15    1
    14    15     1    1
    15     1     2    2
    16     1     3   am
    17     3     4    1
    18     4     5    1
    19     5     6    1
    20     6     7    1
    21     7     9    1
    22     9    10   ar
    23    10    11   ar
    24    11    12   ar
    25    12    13   ar
    26    13    14   ar
    27     7     8    1
    28     8    29    1
    29    29    30    1
    30    30    31    1
    31    31    32    1
    32    32    33    1
    33    33    34    1
    34    34    35    1
    35    28    17   am
    36     8     3    1
    37    35    30    1
    38    27    20   ar
    39    14     9   ar
@<TRIPOS>MOLECULE
*****
 35 39 0 0 0
SMALL
GASTEIGER

@<TRIPOS>ATOM
      1 C          62.4426   89.2960   12.2688 C.2     1  UNL1        0.2463
      2 O          61.8416   90.6623   12.1202 O.2     1  UNL1       -0.2730
      3 N          61.9475   88.1625   11.4204 N.am    1  UNL1       -0.2781
      4 C          60.8513   88.3952   10.4232 C.3     1  UNL1        0.0935
      5 C          60.3562   87.2616    9.5747 C.3     1  UNL1        0.0219
      6 C          60.9572   85.8954    9.7234 C.3     1  UNL1        0.0078
      7 C          62.0533   85.6626   10.7206 C.3     1  UNL1        0.0419
      8 C          62.5484   86.7961   11.5691 C.3     1  UNL1        0.0953
      9 C          62.6543   84.2964   10.8693 C.ar    1  UNL1       -0.0209
     10 C          62.0337   83.3019   11.8053 C.ar    1  UNL1       -0.0042
     11 C          62.6347   81.9356   11.9540 C.ar    1  UNL1       -0.0003
     12 C          63.8562   81.5638   11.1668 C.ar    1  UNL1       -0.0000
     13 C          64.4768   82.5583   10.2309 C.ar    1  UNL1       -0.0003
     14 C          63.8758   83.9246   10.0821 C.ar    1  UNL1       -0.0042
     15 C          63.5387   89.0633   13.2660 C.3     1  UNL1        0.1835
     16 O          63.0198   89.0011   16.2201 O.2     1  UNL1       -0.2705
     17 C          63.7543   90.1589   15.6119 C.2     1  UNL1        0.2744
     18 C          64.2295   91.2855   16.4807 C.3     1  UNL1        0.2900
     19 O          64.9640   92.4433   15.8725 O.3     1  UNL1       -0.4643
     20 C          65.2235   92.4744   14.3955 C.ar    1  UNL1        0.1537
     21 C          65.9581   93.6322   13.7872 C.ar    1  UNL1        0.0504
     22 C          66.2176   93.6633   12.3102 C.ar    1  UNL1        0.0713
     23 CL         66.9522   94.8211   11.7020 Cl      1  UNL1       -0.0813
     24 C          65.7425   92.5366   11.4413 C.ar    1  UNL1        0.0696
     25 CL         66.0020   92.5677    9.9643 Cl      1  UNL1       -0.0813
     26 C          65.0079   91.3788   12.0496 C.ar    1  UNL1        0.0302
     27 C          64.7484   91.3477   13.5267 C.ar    1  UNL1        0.0894
     28 N          64.0138   90.1900   14.1349 N.am    1  UNL1       -0.2439
     29 C          63.6446   86.5634   12.5662 C.3     1  UNL1        0.0926
     30 N          63.5202   85.4588   13.5733 N.3     1  UNL1       -0.2670
     31 C          64.6554   84.5002   13.7791 C.3     1  UNL1        0.1047
     32 C          64.5311   83.3956   14.7862 C.3     1  UNL1        0.1595
     33 O          63.2714   83.2495   15.5875 O.3     1  UNL1       -0.3508
     34 C          62.1362   84.2080   15.3817 C.3     1  UNL1        0.1595
     35 C          62.2606   85.3127   14.3746 C.3     1  UNL1        0.1047
@<TRIPOS>BOND
     1    16    17    2
     2    17    18    1
     3    18    19    1
     4    19    20    1
     5    20    21   ar
     6    21    22   ar
     7    22    23    1
     8    22    24   ar
     9    24    25    1
    10    24    26   ar
    11    26    27   ar
    12    27    28    1
    13    28    15    1
    14    15     1    1
    15     1     2    2
    16     1     3   am
    17     3     4    1
    18     4     5    1
    19     5     6    1
    20     6     7    1
    21     7     9    1
    22     9    10   ar
    23    10    11   ar
    24    11    12   ar
    25    12    13   ar
    26    13    14   ar
    27     7     8    1
    28     8    29    1
    29    29    30    1
    30    30    31    1
    31    31    32    1
    32    32    33    1
    33    33    34    1
    34    34    35    1
    35    28    17   am
    36     8     3    1
    37    35    30    1
    38    27    20   ar
    39    14     9   ar
@<TRIPOS>MOLECULE
*****
 35 39 0 0 0
SMALL
GASTEIGER

@<TRIPOS>ATOM
      1 C          63.6767   89.9341   14.9436 C.2     1  UNL1        0.2463
      2 O          63.5232   91.2339   15.6765 O.2     1  UNL1       -0.2730
      3 N          63.4364   88.6373   15.6580 N.am    1  UNL1       -0.2781
      4 C          63.0425   88.6402   17.1054 C.3     1  UNL1        0.0935
      5 C          62.8021   87.3433   17.8198 C.3     1  UNL1        0.0219
      6 C          62.9556   86.0437   17.0869 C.3     1  UNL1        0.0078
      7 C          63.3495   86.0408   15.6396 C.3     1  UNL1        0.0419
      8 C          63.5899   87.3376   14.9251 C.3     1  UNL1        0.0953
      9 C          63.5030   84.7411   14.9067 C.ar    1  UNL1       -0.0209
     10 C          64.8178   84.3850   14.2784 C.ar    1  UNL1       -0.0042
     11 C          64.9713   83.0853   13.5455 C.ar    1  UNL1       -0.0003
     12 C          63.8100   82.1416   13.4408 C.ar    1  UNL1       -0.0000
     13 C          62.4953   82.4976   14.0691 C.ar    1  UNL1       -0.0003
     14 C          62.3418   83.7974   14.8020 C.ar    1  UNL1       -0.0042
     15 C          64.0706   89.9312   13.4962 C.3     1  UNL1        0.1835
     16 O          63.0899   90.8126   10.8015 O.2     1  UNL1       -0.2705
     17 C          64.1332   91.6162   11.5196 C.2     1  UNL1        0.2744
     18 C          64.6862   92.8605   10.8904 C.3     1  UNL1        0.2900
     19 O          65.7295   93.6641   11.6085 O.3     1  UNL1       -0.4643
     20 C          66.2199   93.2235   12.9558 C.ar    1  UNL1        0.1537
     21 C          67.2632   94.0271   13.6740 C.ar    1  UNL1        0.0504
     22 C          67.7535   93.5865   15.0213 C.ar    1  UNL1        0.0713
     23 CL         68.7968   94.3901   15.7394 Cl      1  UNL1       -0.0813
     24 C          67.2006   92.3421   15.6506 C.ar    1  UNL1        0.0696
     25 CL         67.6909   91.9015   16.9979 Cl      1  UNL1       -0.0813
     26 C          66.1573   91.5385   14.9325 C.ar    1  UNL1        0.0302
     27 C          65.6669   91.9792   13.5851 C.ar    1  UNL1        0.0894
     28 N          64.6236   91.1756   12.8669 N.am    1  UNL1       -0.2439
     29 C          63.9837   87.3347   13.4778 C.3     1  UNL1        0.0926
     30 N          62.9559   87.0566   12.4213 N.3     1  UNL1       -0.2670
     31 C          62.8469   85.6852   11.8234 C.3     1  UNL1        0.1047
     32 C          61.8190   85.4072   10.7670 C.3     1  UNL1        0.1595
     33 O          60.9001   86.5005   10.3084 O.3     1  UNL1       -0.3508
     34 C          61.0091   87.8719   10.9063 C.3     1  UNL1        0.1595
     35 C          62.0370   88.1499   11.9628 C.3     1  UNL1        0.1047
@<TRIPOS>BOND
     1    16    17    2
     2    17    18    1
     3    18    19    1
     4    19    20    1
     5    20    21   ar
     6    21    22   ar
     7    22    23    1
     8    22    24   ar
     9    24    25    1
    10    24    26   ar
    11    26    27   ar
    12    27    28    1
    13    28    15    1
    14    15     1    1
    15     1     2    2
    16     1     3   am
    17     3     4    1
    18     4     5    1
    19     5     6    1
    20     6     7    1
    21     7     9    1
    22     9    10   ar
    23    10    11   ar
    24    11    12   ar
    25    12    13   ar
    26    13    14   ar
    27     7     8    1
    28     8    29    1
    29    29    30    1
    30    30    31    1
    31    31    32    1
    32    32    33    1
    33    33    34    1
    34    34    35    1
    35    28    17   am
    36     8     3    1
    37    35    30    1
    38    27    20   ar
    39    14     9   ar
@<TRIPOS>MOLECULE
*****
 35 39 0 0 0
SMALL
GASTEIGER

@<TRIPOS>ATOM
      1 C          64.2656   87.6262   14.2305 C.2     1  UNL1        0.2463
      2 O          64.9945   87.2703   15.4923 O.2     1  UNL1       -0.2730
      3 N          63.6486   86.5472   13.3909 N.am    1  UNL1       -0.2781
      4 C          63.7604   85.1122   13.8130 C.3     1  UNL1        0.0935
      5 C          63.1434   84.0331   12.9733 C.3     1  UNL1        0.0219
      6 C          62.4146   84.3891   11.7116 C.3     1  UNL1        0.0078
      7 C          62.3028   85.8241   11.2894 C.3     1  UNL1        0.0419
      8 C          62.9198   86.9032   12.1290 C.3     1  UNL1        0.0953
      9 C          61.5740   86.1801   10.0276 C.ar    1  UNL1       -0.0209
     10 C          62.1606   85.8186    8.6952 C.ar    1  UNL1       -0.0042
     11 C          61.4319   86.1746    7.4334 C.ar    1  UNL1       -0.0003
     12 C          60.1165   86.8921    7.5040 C.ar    1  UNL1       -0.0000
     13 C          59.5299   87.2536    8.8363 C.ar    1  UNL1       -0.0003
     14 C          60.2587   86.8976   10.0982 C.ar    1  UNL1       -0.0042
     15 C          64.1539   89.0612   13.8083 C.3     1  UNL1        0.1835
     16 O          61.9047   89.4729   15.7504 O.2     1  UNL1       -0.2705
     17 C          63.1137   90.3591   15.8042 C.2     1  UNL1        0.2744
     18 C          63.1982   91.4511   16.8291 C.3     1  UNL1        0.2900
     19 O          64.4072   92.3373   16.8829 O.3     1  UNL1       -0.4643
     20 C          65.5318   92.1315   15.9118 C.ar    1  UNL1        0.1537
     21 C          66.7408   93.0177   15.9656 C.ar    1  UNL1        0.0504
     22 C          67.8654   92.8119   14.9946 C.ar    1  UNL1        0.0713
     23 CL         69.0744   93.6981   15.0484 Cl      1  UNL1       -0.0813
     24 C          67.7810   91.7198   13.9697 C.ar    1  UNL1        0.0696
     25 CL         68.9055   91.5140   12.9987 Cl      1  UNL1       -0.0813
     26 C          66.5719   90.8336   13.9159 C.ar    1  UNL1        0.0302
     27 C          65.4473   91.0395   14.8870 C.ar    1  UNL1        0.0894
     28 N          64.2383   90.1533   14.8332 N.am    1  UNL1       -0.2439
     29 C          62.8080   88.3382   11.7068 C.3     1  UNL1        0.0926
     30 N          61.4749   89.0252   11.7303 N.3     1  UNL1       -0.2670
     31 C          61.2011   90.1636   10.7926 C.3     1  UNL1        0.1047
     32 C          59.8680   90.8506   10.8161 C.3     1  UNL1        0.1595
     33 O          58.8084   90.3993   11.7773 O.3     1  UNL1       -0.3508
     34 C          59.0822   89.2609   12.7150 C.3     1  UNL1        0.1595
     35 C          60.4154   88.5739   12.6915 C.3     1  UNL1        0.1047
@<TRIPOS>BOND
     1    16    17    2
     2    17    18    1
     3    18    19    1
     4    19    20    1
     5    20    21   ar
     6    21    22   ar
     7    22    23    1
     8    22    24   ar
     9    24    25    1
    10    24    26   ar
    11    26    27   ar
    12    27    28    1
    13    28    15    1
    14    15     1    1
    15     1     2    2
    16     1     3   am
    17     3     4    1
    18     4     5    1
    19     5     6    1
    20     6     7    1
    21     7     9    1
    22     9    10   ar
    23    10    11   ar
    24    11    12   ar
    25    12    13   ar
    26    13    14   ar
    27     7     8    1
    28     8    29    1
    29    29    30    1
    30    30    31    1
    31    31    32    1
    32    32    33    1
    33    33    34    1
    34    34    35    1
    35    28    17   am
    36     8     3    1
    37    35    30    1
    38    27    20   ar
    39    14     9   ar
@<TRIPOS>MOLECULE
*****
 35 39 0 0 0
SMALL
GASTEIGER

@<TRIPOS>ATOM
      1 C          58.4368   94.9656   -2.4920 C.2     1  UNL1        0.2463
      2 O          57.0838   95.5561   -2.7581 O.2     1  UNL1       -0.2730
      3 N          59.2171   95.3924   -1.2842 N.am    1  UNL1       -0.2781
      4 C          58.6444   96.4096   -0.3422 C.3     1  UNL1        0.0935
      5 C          59.4247   96.8364    0.8657 C.3     1  UNL1        0.0219
      6 C          60.7777   96.2460    1.1317 C.3     1  UNL1        0.0078
      7 C          61.3504   95.2287    0.1897 C.3     1  UNL1        0.0419
      8 C          60.5701   94.8019   -1.0181 C.3     1  UNL1        0.0953
      9 C          62.7034   94.6383    0.4557 C.ar    1  UNL1       -0.0209
     10 C          63.9378   95.3514   -0.0108 C.ar    1  UNL1       -0.0042
     11 C          65.2908   94.7610    0.2552 C.ar    1  UNL1       -0.0003
     12 C          65.4094   93.4574    0.9876 C.ar    1  UNL1       -0.0000
     13 C          64.1750   92.7442    1.4541 C.ar    1  UNL1       -0.0003
     14 C          62.8220   93.3347    1.1882 C.ar    1  UNL1       -0.0042
     15 C          59.0096   93.9484   -3.4339 C.3     1  UNL1        0.1835
     16 O          60.0138   95.6574   -5.6858 O.2     1  UNL1       -0.2705
     17 C          58.9347   94.6459   -5.9355 C.2     1  UNL1        0.2744
     18 C          58.3576   94.4889   -7.3111 C.3     1  UNL1        0.2900
     19 O          57.2785   93.4774   -7.5609 O.3     1  UNL1       -0.4643
     20 C          56.7764   92.6229   -6.4350 C.ar    1  UNL1        0.1537
     21 C          55.6973   91.6114   -6.6847 C.ar    1  UNL1        0.0504
     22 C          55.1952   90.7569   -5.5589 C.ar    1  UNL1        0.0713
     23 CL         54.1161   89.7453   -5.8086 Cl      1  UNL1       -0.0813
     24 C          55.7723   90.9138   -4.1832 C.ar    1  UNL1        0.0696
     25 CL         55.2702   90.0593   -3.0573 Cl      1  UNL1       -0.0813
     26 C          56.8514   91.9253   -3.9334 C.ar    1  UNL1        0.0302
     27 C          57.3535   92.7799   -5.0594 C.ar    1  UNL1        0.0894
     28 N          58.4326   93.7914   -4.8097 N.am    1  UNL1       -0.2439
     29 C          61.1429   93.7847   -1.9600 C.3     1  UNL1        0.0926
     30 N          62.2783   94.1574   -2.8666 N.3     1  UNL1       -0.2670
     31 C          62.4410   95.5781   -3.3197 C.3     1  UNL1        0.1047
     32 C          63.5764   95.9508   -4.2262 C.3     1  UNL1        0.1595
     33 O          64.5491   94.9029   -4.6798 O.3     1  UNL1       -0.3508
     34 C          64.3864   93.4822   -4.2267 C.3     1  UNL1        0.1595
     35 C          63.2509   93.1095   -3.3201 C.3     1  UNL1        0.1047
@<TRIPOS>BOND
     1    16    17    2
     2    17    18    1
     3    18    19    1
     4    19    20    1
     5    20    21   ar
     6    21    22   ar
     7    22    23    1
     8    22    24   ar
     9    24    25    1
    10    24    26   ar
    11    26    27   ar
    12    27    28    1
    13    28    15    1
    14    15     1    1
    15     1     2    2
    16     1     3   am
    17     3     4    1
    18     4     5    1
    19     5     6    1
    20     6     7    1
    21     7     9    1
    22     9    10   ar
    23    10    11   ar
    24    11    12   ar
    25    12    13   ar
    26    13    14   ar
    27     7     8    1
    28     8    29    1
    29    29    30    1
    30    30    31    1
    31    31    32    1
    32    32    33    1
    33    33    34    1
    34    34    35    1
    35    28    17   am
    36     8     3    1
    37    35    30    1
    38    27    20   ar
    39    14     9   ar
@<TRIPOS>MOLECULE
*****
 35 39 0 0 0
SMALL
GASTEIGER

@<TRIPOS>ATOM
      1 C          63.7559   88.2161   13.6944 C.2     1  UNL1        0.2463
      2 O          64.6423   87.8018   14.8314 O.2     1  UNL1       -0.2730
      3 N          63.2942   87.1983   12.6940 N.am    1  UNL1       -0.2781
      4 C          63.7188   85.7661   12.8305 C.3     1  UNL1        0.0935
      5 C          63.2570   84.7483   11.8300 C.3     1  UNL1        0.0219
      6 C          62.3707   85.1627   10.6931 C.3     1  UNL1        0.0078
      7 C          61.9460   86.5948   10.5566 C.3     1  UNL1        0.0419
      8 C          62.4077   87.6126   11.5570 C.3     1  UNL1        0.0953
      9 C          61.0596   87.0092    9.4197 C.ar    1  UNL1       -0.0209
     10 C          60.9151   88.4612    9.0720 C.ar    1  UNL1       -0.0042
     11 C          60.0288   88.8755    7.9350 C.ar    1  UNL1       -0.0003
     12 C          59.2869   87.8379    7.1458 C.ar    1  UNL1       -0.0000
     13 C          59.4313   86.3860    7.4934 C.ar    1  UNL1       -0.0003
     14 C          60.3177   85.9715    8.6304 C.ar    1  UNL1       -0.0042
     15 C          63.3312   89.6482   13.5578 C.3     1  UNL1        0.1835
     16 O          63.3225   89.7601   16.5558 O.2     1  UNL1       -0.2705
     17 C          64.0873   90.7831   15.7693 C.2     1  UNL1        0.2744
     18 C          64.8478   91.8620   16.4818 C.3     1  UNL1        0.2900
     19 O          65.6126   92.8850   15.6953 O.3     1  UNL1       -0.4643
     20 C          65.6170   92.8291   14.1964 C.ar    1  UNL1        0.1537
     21 C          66.3818   93.8521   13.4099 C.ar    1  UNL1        0.0504
     22 C          66.3862   93.7962   11.9110 C.ar    1  UNL1        0.0713
     23 CL         67.1510   94.8192   11.1246 Cl      1  UNL1       -0.0813
     24 C          65.6257   92.7172   11.1985 C.ar    1  UNL1        0.0696
     25 CL         65.6301   92.6613    9.6996 Cl      1  UNL1       -0.0813
     26 C          64.8609   91.6942   11.9849 C.ar    1  UNL1        0.0302
     27 C          64.8565   91.7502   13.4839 C.ar    1  UNL1        0.0894
     28 N          64.0917   90.7272   14.2704 N.am    1  UNL1       -0.2439
     29 C          61.9831   89.0447   11.4205 C.3     1  UNL1        0.0926
     30 N          60.5746   89.4438   11.7473 N.3     1  UNL1       -0.2670
     31 C          60.0430   90.7673   11.2826 C.3     1  UNL1        0.1047
     32 C          58.6346   91.1663   11.6094 C.3     1  UNL1        0.1595
     33 O          57.7575   90.2419   12.4009 O.3     1  UNL1       -0.3508
     34 C          58.2891   88.9184   12.8655 C.3     1  UNL1        0.1595
     35 C          59.6977   88.5194   12.5387 C.3     1  UNL1        0.1047
@<TRIPOS>BOND
     1    16    17    2
     2    17    18    1
     3    18    19    1
     4    19    20    1
     5    20    21   ar
     6    21    22   ar
     7    22    23    1
     8    22    24   ar
     9    24    25    1
    10    24    26   ar
    11    26    27   ar
    12    27    28    1
    13    28    15    1
    14    15     1    1
    15     1     2    2
    16     1     3   am
    17     3     4    1
    18     4     5    1
    19     5     6    1
    20     6     7    1
    21     7     9    1
    22     9    10   ar
    23    10    11   ar
    24    11    12   ar
    25    12    13   ar
    26    13    14   ar
    27     7     8    1
    28     8    29    1
    29    29    30    1
    30    30    31    1
    31    31    32    1
    32    32    33    1
    33    33    34    1
    34    34    35    1
    35    28    17   am
    36     8     3    1
    37    35    30    1
    38    27    20   ar
    39    14     9   ar
@<TRIPOS>MOLECULE
*****
 35 39 0 0 0
SMALL
GASTEIGER

@<TRIPOS>ATOM
      1 C          61.8439   90.2500   11.7499 C.2     1  UNL1        0.2463
      2 O          60.9934   91.4633   11.5159 O.2     1  UNL1       -0.2730
      3 N          61.4070   88.9150   11.2240 N.am    1  UNL1       -0.2781
      4 C          60.1195   88.7931   10.4640 C.3     1  UNL1        0.0935
      5 C          59.6826   87.4580    9.9380 C.3     1  UNL1        0.0219
      6 C          60.5331   86.2448   10.1721 C.3     1  UNL1        0.0078
      7 C          61.8205   86.3667   10.9321 C.3     1  UNL1        0.0419
      8 C          62.2575   87.7017   11.4581 C.3     1  UNL1        0.0953
      9 C          62.6710   85.1535   11.1662 C.ar    1  UNL1       -0.0209
     10 C          63.5474   84.6287   10.0677 C.ar    1  UNL1       -0.0042
     11 C          64.3979   83.4155   10.3018 C.ar    1  UNL1       -0.0003
     12 C          64.3720   82.7271   11.6343 C.ar    1  UNL1       -0.0000
     13 C          63.4957   83.2519   12.7327 C.ar    1  UNL1       -0.0003
     14 C          62.6451   84.4651   12.4986 C.ar    1  UNL1       -0.0042
     15 C          63.1314   90.3719   12.5099 C.3     1  UNL1        0.1835
     16 O          63.3879   91.0560    9.6003 O.2     1  UNL1       -0.2705
     17 C          64.3083   91.6865   10.6029 C.2     1  UNL1        0.2744
     18 C          65.3570   92.6590   10.1508 C.3     1  UNL1        0.2900
     19 O          66.2774   93.2895   11.1534 O.3     1  UNL1       -0.4643
     20 C          66.1492   92.9475   12.6082 C.ar    1  UNL1        0.1537
     21 C          67.0696   93.5779   13.6109 C.ar    1  UNL1        0.0504
     22 C          66.9414   93.2359   15.0657 C.ar    1  UNL1        0.0713
     23 CL         67.8618   93.8664   16.0684 Cl      1  UNL1       -0.0813
     24 C          65.8927   92.2633   15.5179 C.ar    1  UNL1        0.0696
     25 CL         65.7644   91.9213   16.9727 Cl      1  UNL1       -0.0813
     26 C          64.9722   91.6329   14.5153 C.ar    1  UNL1        0.0302
     27 C          65.1005   91.9749   13.0604 C.ar    1  UNL1        0.0894
     28 N          64.1801   91.3445   12.0577 N.am    1  UNL1       -0.2439
     29 C          63.5449   87.8236   12.2181 C.3     1  UNL1        0.0926
     30 N          63.5654   87.5947   13.7003 N.3     1  UNL1       -0.2670
     31 C          63.1750   88.7007   14.6355 C.3     1  UNL1        0.1047
     32 C          63.1955   88.4718   16.1177 C.3     1  UNL1        0.1595
     33 O          63.6064   87.1369   16.6649 O.3     1  UNL1       -0.3508
     34 C          63.9967   86.0310   15.7298 C.3     1  UNL1        0.1595
     35 C          63.9763   86.2599   14.2475 C.3     1  UNL1        0.1047
@<TRIPOS>BOND
     1    16    17    2
     2    17    18    1
     3    18    19    1
     4    19    20    1
     5    20    21   ar
     6    21    22   ar
     7    22    23    1
     8    22    24   ar
     9    24    25    1
    10    24    26   ar
    11    26    27   ar
    12    27    28    1
    13    28    15    1
    14    15     1    1
    15     1     2    2
    16     1     3   am
    17     3     4    1
    18     4     5    1
    19     5     6    1
    20     6     7    1
    21     7     9    1
    22     9    10   ar
    23    10    11   ar
    24    11    12   ar
    25    12    13   ar
    26    13    14   ar
    27     7     8    1
    28     8    29    1
    29    29    30    1
    30    30    31    1
    31    31    32    1
    32    32    33    1
    33    33    34    1
    34    34    35    1
    35    28    17   am
    36     8     3    1
    37    35    30    1
    38    27    20   ar
    39    14     9   ar
@<TRIPOS>MOLECULE
*****
 35 39 0 0 0
SMALL
GASTEIGER

@<TRIPOS>ATOM
      1 C          63.0428   90.2883   13.8223 C.2     1  UNL1        0.2463
      2 O          61.6326   89.8693   14.1154 O.2     1  UNL1       -0.2730
      3 N          63.8571   90.9727   14.8799 N.am    1  UNL1       -0.2781
      4 C          63.2612   91.2382   16.2306 C.3     1  UNL1        0.0935
      5 C          64.0755   91.9226   17.2882 C.3     1  UNL1        0.0219
      6 C          65.4856   92.3416   16.9951 C.3     1  UNL1        0.0078
      7 C          66.0815   92.0762   15.6443 C.3     1  UNL1        0.0419
      8 C          65.2673   91.3917   14.5868 C.3     1  UNL1        0.0953
      9 C          67.4916   92.4952   15.3512 C.ar    1  UNL1       -0.0209
     10 C          68.0543   93.7317   15.9872 C.ar    1  UNL1       -0.0042
     11 C          69.4644   94.1507   15.6940 C.ar    1  UNL1       -0.0003
     12 C          70.3119   93.3332   14.7649 C.ar    1  UNL1       -0.0000
     13 C          69.7494   92.0967   14.1289 C.ar    1  UNL1       -0.0003
     14 C          68.3392   91.6776   14.4220 C.ar    1  UNL1       -0.0042
     15 C          63.6387   90.0228   12.4716 C.3     1  UNL1        0.1835
     16 O          62.3184   91.3130   10.1067 O.2     1  UNL1       -0.2705
     17 C          62.2355   89.8270   10.2938 C.2     1  UNL1        0.2744
     18 C          61.4925   88.9861    9.2984 C.3     1  UNL1        0.2900
     19 O          61.4096   87.5001    9.4855 O.3     1  UNL1       -0.4643
     20 C          62.0698   86.8550   10.6679 C.ar    1  UNL1        0.1537
     21 C          61.9869   85.3690   10.8549 C.ar    1  UNL1        0.0504
     22 C          62.6470   84.7240   12.0373 C.ar    1  UNL1        0.0713
     23 CL         62.5641   83.2380   12.2243 Cl      1  UNL1       -0.0813
     24 C          63.3901   85.5649   13.0327 C.ar    1  UNL1        0.0696
     25 CL         64.0502   84.9198   14.2151 Cl      1  UNL1       -0.0813
     26 C          63.4730   87.0509   12.8456 C.ar    1  UNL1        0.0302
     27 C          62.8128   87.6959   11.6632 C.ar    1  UNL1        0.0894
     28 N          62.8956   89.1819   11.4762 N.am    1  UNL1       -0.2439
     29 C          65.8632   91.1263   13.2360 C.3     1  UNL1        0.0926
     30 N          66.2459   92.2720   12.3468 N.3     1  UNL1       -0.2670
     31 C          65.8249   93.6680   12.6991 C.3     1  UNL1        0.1047
     32 C          66.2077   94.8137   11.8099 C.3     1  UNL1        0.1595
     33 O          67.0113   94.5635   10.5683 O.3     1  UNL1       -0.3508
     34 C          67.4322   93.1676   10.2159 C.3     1  UNL1        0.1595
     35 C          67.0495   92.0218   11.1052 C.3     1  UNL1        0.1047
@<TRIPOS>BOND
     1    16    17    2
     2    17    18    1
     3    18    19    1
     4    19    20    1
     5    20    21   ar
     6    21    22   ar
     7    22    23    1
     8    22    24   ar
     9    24    25    1
    10    24    26   ar
    11    26    27   ar
    12    27    28    1
    13    28    15    1
    14    15     1    1
    15     1     2    2
    16     1     3   am
    17     3     4    1
    18     4     5    1
    19     5     6    1
    20     6     7    1
    21     7     9    1
    22     9    10   ar
    23    10    11   ar
    24    11    12   ar
    25    12    13   ar
    26    13    14   ar
    27     7     8    1
    28     8    29    1
    29    29    30    1
    30    30    31    1
    31    31    32    1
    32    32    33    1
    33    33    34    1
    34    34    35    1
    35    28    17   am
    36     8     3    1
    37    35    30    1
    38    27    20   ar
    39    14     9   ar
@<TRIPOS>MOLECULE
*****
 35 39 0 0 0
SMALL
GASTEIGER

@<TRIPOS>ATOM
      1 C          61.0241   89.5018   11.1998 C.2     1  UNL1        0.2463
      2 O          60.1177   90.6591   10.9008 O.2     1  UNL1       -0.2730
      3 N          60.8496   88.2040   10.4683 N.am    1  UNL1       -0.2781
      4 C          59.7687   88.0634    9.4378 C.3     1  UNL1        0.0935
      5 C          59.5942   86.7655    8.7062 C.3     1  UNL1        0.0219
      6 C          60.5006   85.6083    9.0052 C.3     1  UNL1        0.0078
      7 C          61.5815   85.7490   10.0357 C.3     1  UNL1        0.0419
      8 C          61.7560   87.0468   10.7672 C.3     1  UNL1        0.0953
      9 C          62.4879   84.5918   10.3347 C.ar    1  UNL1       -0.0209
     10 C          62.1169   83.6047   11.4015 C.ar    1  UNL1       -0.0042
     11 C          63.0233   82.4475   11.7005 C.ar    1  UNL1       -0.0003
     12 C          64.3006   82.2774   10.9327 C.ar    1  UNL1       -0.0000
     13 C          64.6715   83.2644    9.8659 C.ar    1  UNL1       -0.0003
     14 C          63.7652   84.4217    9.5668 C.ar    1  UNL1       -0.0042
     15 C          62.1050   89.6425   12.2303 C.3     1  UNL1        0.1835
     16 O          62.8119   90.5040    9.4449 O.2     1  UNL1       -0.2705
     17 C          63.5874   91.0353   10.6139 C.2     1  UNL1        0.2744
     18 C          64.7163   91.9972   10.3902 C.3     1  UNL1        0.2900
     19 O          65.4918   92.5285   11.5591 O.3     1  UNL1       -0.4643
     20 C          65.1384   92.0978   12.9517 C.ar    1  UNL1        0.1537
     21 C          65.9139   92.6290   14.1207 C.ar    1  UNL1        0.0504
     22 C          65.5605   92.1983   15.5133 C.ar    1  UNL1        0.0713
     23 CL         66.3359   92.7295   16.6822 Cl      1  UNL1       -0.0813
     24 C          64.4315   91.2362   15.7371 C.ar    1  UNL1        0.0696
     25 CL         64.0781   90.8055   17.1297 Cl      1  UNL1       -0.0813
     26 C          63.6560   90.7050   14.5681 C.ar    1  UNL1        0.0302
     27 C          64.0095   91.1358   13.1754 C.ar    1  UNL1        0.0894
     28 N          63.2340   90.6045   12.0065 N.am    1  UNL1       -0.2439
     29 C          62.8369   87.1874   11.7977 C.3     1  UNL1        0.0926
     30 N          62.9891   86.1510   12.8713 N.3     1  UNL1       -0.2670
     31 C          64.3536   85.6513   13.2433 C.3     1  UNL1        0.1047
     32 C          64.5058   84.6148   14.3169 C.3     1  UNL1        0.1595
     33 O          63.2934   84.0780   15.0184 O.3     1  UNL1       -0.3508
     34 C          61.9289   84.5777   14.6463 C.3     1  UNL1        0.1595
     35 C          61.7768   85.6142   13.5727 C.3     1  UNL1        0.1047
@<TRIPOS>BOND
     1    16    17    2
     2    17    18    1
     3    18    19    1
     4    19    20    1
     5    20    21   ar
     6    21    22   ar
     7    22    23    1
     8    22    24   ar
     9    24    25    1
    10    24    26   ar
    11    26    27   ar
    12    27    28    1
    13    28    15    1
    14    15     1    1
    15     1     2    2
    16     1     3   am
    17     3     4    1
    18     4     5    1
    19     5     6    1
    20     6     7    1
    21     7     9    1
    22     9    10   ar
    23    10    11   ar
    24    11    12   ar
    25    12    13   ar
    26    13    14   ar
    27     7     8    1
    28     8    29    1
    29    29    30    1
    30    30    31    1
    31    31    32    1
    32    32    33    1
    33    33    34    1
    34    34    35    1
    35    28    17   am
    36     8     3    1
    37    35    30    1
    38    27    20   ar
    39    14     9   ar
