@<TRIPOS>MOLECULE
*****
 27 29 0 0 0
SMALL
GASTEIGER

@<TRIPOS>ATOM
      1 C          63.9354   91.1083   11.7420 C.ar    1  UNL1        0.0895
      2 C          64.4445   91.1238   13.1529 C.ar    1  UNL1        0.0538
      3 C          65.6101   91.9936   13.5201 C.ar    1  UNL1        0.1388
      4 N          66.2666   92.8479   12.4764 N.ar    1  UNL1       -0.1948
      5 C          65.7575   92.8324   11.0655 C.ar    1  UNL1        0.2539
      6 N          64.5919   91.9626   10.6983 N.ar    1  UNL1       -0.2098
      7 C          61.5714   87.9344   11.4454 C.ar    1  UNL1        0.1660
      8 C          60.4386   88.4989   10.6404 C.ar    1  UNL1        0.0392
      9 C          60.4714   89.9332   10.2025 C.ar    1  UNL1        0.0033
     10 C          61.6370   90.8030   10.5697 C.ar    1  UNL1        0.0039
     11 C          62.7698   90.2385   11.3748 C.ar    1  UNL1        0.0483
     12 C          62.7370   88.8042   11.8126 C.ar    1  UNL1        0.1752
     13 F          63.8698   88.2397   12.6177 F       1  UNL1       -0.2009
     14 C          62.2704   85.4573   11.0915 C.3     1  UNL1        0.2526
     15 O          61.5386   86.5001   11.8833 O.3     1  UNL1       -0.4692
     16 N          66.4139   93.6867   10.0219 N.ar    1  UNL1       -0.2008
     17 N          65.9665   95.0519    9.5907 N.ar    1  UNL1       -0.1673
     18 C          66.9091   95.5347    8.5284 C.ar    1  UNL1        0.0806
     19 C          66.8347   96.8529    7.8165 C.3     1  UNL1        0.0540
     20 C          67.9392   94.4679    8.3032 C.ar    1  UNL1        0.0313
     21 C          67.6332   93.3258    9.2261 C.ar    1  UNL1        0.0651
     22 C          68.4100   92.0472    9.3344 C.3     1  UNL1        0.0523
     23 N          66.1192   92.0091   14.9309 N.am    1  UNL1       -0.2692
     24 C          67.5893   92.1448   15.1964 C.2     1  UNL1        0.2277
     25 C          68.0984   92.1603   16.6072 C.3     1  UNL1        0.0950
     26 O          68.5503   92.2649   14.0510 O.2     1  UNL1       -0.2747
     27 H          65.4885   91.9303   15.6827 H       1  UNL1        0.1563
@<TRIPOS>BOND
     1    14    15    1
     2    15     7    1
     3     7     8   ar
     4     8     9   ar
     5     9    10   ar
     6    10    11   ar
     7    11     1    1
     8     1     2   ar
     9     2     3   ar
    10     3    23    1
    11    23    24   am
    12    24    25    1
    13    24    26    2
    14     3     4   ar
    15     4     5   ar
    16     5    16    1
    17    16    17   ar
    18    17    18   ar
    19    18    19    1
    20    18    20   ar
    21    20    21   ar
    22    21    22    1
    23     5     6   ar
    24    11    12   ar
    25    12    13    1
    26    12     7   ar
    27     6     1   ar
    28    21    16   ar
    29    23    27    1
@<TRIPOS>MOLECULE
*****
 27 29 0 0 0
SMALL
GASTEIGER

@<TRIPOS>ATOM
      1 C          63.0551   88.7304   12.1328 C.ar    1  UNL1        0.0895
      2 C          61.8968   88.7558   11.1802 C.ar    1  UNL1        0.0538
      3 C          61.1320   87.4971   10.8956 C.ar    1  UNL1        0.1388
      4 N          61.5258   86.2131   11.5636 N.ar    1  UNL1       -0.1948
      5 C          62.6842   86.1877   12.5162 C.ar    1  UNL1        0.2539
      6 N          63.4489   87.4464   12.8008 N.ar    1  UNL1       -0.2098
      7 C          65.2101   91.4568   14.0493 C.ar    1  UNL1        0.1660
      8 C          65.3493   92.5063   12.9867 C.ar    1  UNL1        0.0392
      9 C          64.7237   92.2973   11.6395 C.ar    1  UNL1        0.0033
     10 C          63.9590   91.0386   11.3549 C.ar    1  UNL1        0.0039
     11 C          63.8199   89.9891   12.4174 C.ar    1  UNL1        0.0483
     12 C          64.4454   90.1982   13.7646 C.ar    1  UNL1        0.1752
     13 F          64.3062   89.1486   14.8272 F       1  UNL1       -0.2009
     14 C          66.7436   92.8371   15.6282 C.3     1  UNL1        0.2526
     15 O          65.8356   91.6659   15.3965 O.3     1  UNL1       -0.4692
     16 N          63.0779   84.9037   13.1842 N.ar    1  UNL1       -0.2008
     17 N          62.8554   83.5231   12.6415 N.ar    1  UNL1       -0.1673
     18 C          63.4032   82.5409   13.6341 C.ar    1  UNL1        0.0806
     19 C          63.3919   81.0475   13.4949 C.3     1  UNL1        0.0540
     20 C          63.9644   83.3145   14.7903 C.ar    1  UNL1        0.0313
     21 C          63.7633   84.7747   14.5122 C.ar    1  UNL1        0.0651
     22 C          64.1754   85.9072   15.4054 C.3     1  UNL1        0.0523
     23 N          59.9737   87.5225    9.9430 N.am    1  UNL1       -0.2692
     24 C          60.0727   86.8174    8.6227 C.2     1  UNL1        0.2277
     25 C          58.9144   86.8428    7.6701 C.3     1  UNL1        0.0950
     26 O          61.3302   86.0869    8.2551 O.2     1  UNL1       -0.2747
     27 H          59.1484   88.0019   10.1843 H       1  UNL1        0.1563
@<TRIPOS>BOND
     1    14    15    1
     2    15     7    1
     3     7     8   ar
     4     8     9   ar
     5     9    10   ar
     6    10    11   ar
     7    11     1    1
     8     1     2   ar
     9     2     3   ar
    10     3    23    1
    11    23    24   am
    12    24    25    1
    13    24    26    2
    14     3     4   ar
    15     4     5   ar
    16     5    16    1
    17    16    17   ar
    18    17    18   ar
    19    18    19    1
    20    18    20   ar
    21    20    21   ar
    22    21    22    1
    23     5     6   ar
    24    11    12   ar
    25    12    13    1
    26    12     7   ar
    27     6     1   ar
    28    21    16   ar
    29    23    27    1
@<TRIPOS>MOLECULE
*****
 27 29 0 0 0
SMALL
GASTEIGER

@<TRIPOS>ATOM
      1 C          63.1662   88.7089   12.3740 C.ar    1  UNL1        0.0895
      2 C          62.0337   88.8456   11.4000 C.ar    1  UNL1        0.0538
      3 C          61.2429   87.6370   10.9949 C.ar    1  UNL1        0.1388
      4 N          61.5846   86.2918   11.5639 N.ar    1  UNL1       -0.1948
      5 C          62.7172   86.1552   12.5379 C.ar    1  UNL1        0.2539
      6 N          63.5080   87.3638   12.9429 N.ar    1  UNL1       -0.2098
      7 C          64.9929   92.2277   12.1960 C.ar    1  UNL1        0.1660
      8 C          65.5386   92.3346   13.5891 C.ar    1  UNL1        0.0392
      9 C          65.2935   91.2329   14.5771 C.ar    1  UNL1        0.0033
     10 C          64.5027   90.0244   14.1721 C.ar    1  UNL1        0.0039
     11 C          63.9570   89.9175   12.7791 C.ar    1  UNL1        0.0483
     12 C          64.2021   91.0192   11.7910 C.ar    1  UNL1        0.1752
     13 F          63.6563   90.9123   10.3978 F       1  UNL1       -0.2009
     14 C          66.1330   94.4770   11.5709 C.3     1  UNL1        0.2526
     15 O          65.2379   93.3294   11.2079 O.3     1  UNL1       -0.4692
     16 N          63.0590   84.8101   13.1069 N.ar    1  UNL1       -0.2008
     17 N          62.7526   83.4831   12.4781 N.ar    1  UNL1       -0.1673
     18 C          63.2714   82.4086   13.3871 C.ar    1  UNL1        0.0806
     19 C          63.1793   80.9307   13.1476 C.3     1  UNL1        0.0540
     20 C          63.8984   83.0715   14.5777 C.ar    1  UNL1        0.0313
     21 C          63.7672   84.5556   14.4045 C.ar    1  UNL1        0.0651
     22 C          64.2579   85.6017   15.3610 C.3     1  UNL1        0.0523
     23 N          60.1103   87.7736   10.0210 N.am    1  UNL1       -0.2692
     24 C          60.1405   87.0190    8.7250 C.2     1  UNL1        0.2277
     25 C          59.0080   87.1556    7.7510 C.3     1  UNL1        0.0950
     26 O          61.3032   86.1277    8.4029 O.2     1  UNL1       -0.2747
     27 H          59.3472   88.3586   10.2323 H       1  UNL1        0.1563
@<TRIPOS>BOND
     1    14    15    1
     2    15     7    1
     3     7     8   ar
     4     8     9   ar
     5     9    10   ar
     6    10    11   ar
     7    11     1    1
     8     1     2   ar
     9     2     3   ar
    10     3    23    1
    11    23    24   am
    12    24    25    1
    13    24    26    2
    14     3     4   ar
    15     4     5   ar
    16     5    16    1
    17    16    17   ar
    18    17    18   ar
    19    18    19    1
    20    18    20   ar
    21    20    21   ar
    22    21    22    1
    23     5     6   ar
    24    11    12   ar
    25    12    13    1
    26    12     7   ar
    27     6     1   ar
    28    21    16   ar
    29    23    27    1
@<TRIPOS>MOLECULE
*****
 27 29 0 0 0
SMALL
GASTEIGER

@<TRIPOS>ATOM
      1 C          63.2383   89.5657   12.0779 C.ar    1  UNL1        0.0895
      2 C          62.2946   90.0374   11.0117 C.ar    1  UNL1        0.0538
      3 C          61.4413   89.0484   10.2743 C.ar    1  UNL1        0.1388
      4 N          61.5318   87.5877   10.6030 N.ar    1  UNL1       -0.1948
      5 C          62.4756   87.1160   11.6693 C.ar    1  UNL1        0.2539
      6 N          63.3288   88.1050   12.4067 N.ar    1  UNL1       -0.2098
      7 C          65.5287   92.7191   12.8265 C.ar    1  UNL1        0.1660
      8 C          65.7980   92.5328   14.2903 C.ar    1  UNL1        0.0392
      9 C          65.2140   91.3575   15.0166 C.ar    1  UNL1        0.0033
     10 C          64.3608   90.3685   14.2792 C.ar    1  UNL1        0.0039
     11 C          64.0915   90.5548   12.8154 C.ar    1  UNL1        0.0483
     12 C          64.6755   91.7301   12.0891 C.ar    1  UNL1        0.1752
     13 F          64.4062   91.9164   10.6252 F       1  UNL1       -0.2009
     14 C          66.6322   93.7298   10.7026 C.3     1  UNL1        0.2526
     15 O          66.1127   93.8944   12.1001 O.3     1  UNL1       -0.4692
     16 N          62.5662   85.6553   11.9981 N.ar    1  UNL1       -0.2008
     17 N          62.3900   85.0448   13.3568 N.ar    1  UNL1       -0.1673
     18 C          62.5637   83.5607   13.2243 C.ar    1  UNL1        0.0806
     19 C          62.4703   82.5593   14.3371 C.3     1  UNL1        0.0540
     20 C          62.8473   83.2541   11.7836 C.ar    1  UNL1        0.0313
     21 C          62.8488   84.5486   11.0258 C.ar    1  UNL1        0.0651
     22 C          63.0906   84.7083    9.5540 C.3     1  UNL1        0.0523
     23 N          60.4976   89.5201    9.2081 N.am    1  UNL1       -0.2692
     24 C          60.0249   88.5677    8.1500 C.2     1  UNL1        0.2277
     25 C          59.0811   89.0394    7.0838 C.3     1  UNL1        0.0950
     26 O          60.4959   87.1437    8.1581 O.2     1  UNL1       -0.2747
     27 H          60.1884   90.4548    9.2027 H       1  UNL1        0.1563
@<TRIPOS>BOND
     1    14    15    1
     2    15     7    1
     3     7     8   ar
     4     8     9   ar
     5     9    10   ar
     6    10    11   ar
     7    11     1    1
     8     1     2   ar
     9     2     3   ar
    10     3    23    1
    11    23    24   am
    12    24    25    1
    13    24    26    2
    14     3     4   ar
    15     4     5   ar
    16     5    16    1
    17    16    17   ar
    18    17    18   ar
    19    18    19    1
    20    18    20   ar
    21    20    21   ar
    22    21    22    1
    23     5     6   ar
    24    11    12   ar
    25    12    13    1
    26    12     7   ar
    27     6     1   ar
    28    21    16   ar
    29    23    27    1
@<TRIPOS>MOLECULE
*****
 27 29 0 0 0
SMALL
GASTEIGER

@<TRIPOS>ATOM
      1 C          62.1739   87.6507   11.2128 C.ar    1  UNL1        0.0895
      2 C          62.7957   88.8689   11.8285 C.ar    1  UNL1        0.0538
      3 C          63.6385   88.7386   13.0625 C.ar    1  UNL1        0.1388
      4 N          63.8595   87.3899   13.6808 N.ar    1  UNL1       -0.1948
      5 C          63.2376   86.1716   13.0651 C.ar    1  UNL1        0.2539
      6 N          62.3948   86.3020   11.8312 N.ar    1  UNL1       -0.2098
      7 C          60.2280   86.7107    7.8842 C.ar    1  UNL1        0.1660
      8 C          59.6455   88.0416    7.5109 C.ar    1  UNL1        0.0392
      9 C          59.9059   89.2422    8.3715 C.ar    1  UNL1        0.0033
     10 C          60.7486   89.1119    9.6055 C.ar    1  UNL1        0.0039
     11 C          61.3311   87.7810    9.9788 C.ar    1  UNL1        0.0483
     12 C          61.0708   86.5804    9.1181 C.ar    1  UNL1        0.1752
     13 F          61.6533   85.2494    9.4915 F       1  UNL1       -0.2009
     14 C          61.1167   84.7347    6.4504 C.3     1  UNL1        0.2526
     15 O          59.9677   85.5100    7.0235 O.3     1  UNL1       -0.4692
     16 N          63.4585   84.8230   13.6834 N.ar    1  UNL1       -0.2008
     17 N          63.4365   83.5080   12.9621 N.ar    1  UNL1       -0.1673
     18 C          63.7046   82.4248   13.9645 C.ar    1  UNL1        0.0806
     19 C          63.7730   80.9543   13.6765 C.3     1  UNL1        0.0540
     20 C          63.8923   83.0703   15.3054 C.ar    1  UNL1        0.0313
     21 C          63.7402   84.5524   15.1317 C.ar    1  UNL1        0.0651
     22 C          63.8504   85.5831   16.2159 C.3     1  UNL1        0.0523
     23 N          64.2604   89.9569   13.6782 N.am    1  UNL1       -0.2692
     24 C          63.8131   90.4248   15.0313 C.2     1  UNL1        0.2277
     25 C          64.4350   91.6431   15.6469 C.3     1  UNL1        0.0950
     26 O          62.7440   89.6745   15.7688 O.2     1  UNL1       -0.2747
     27 H          64.9621   90.4494   13.1941 H       1  UNL1        0.1563
@<TRIPOS>BOND
     1    14    15    1
     2    15     7    1
     3     7     8   ar
     4     8     9   ar
     5     9    10   ar
     6    10    11   ar
     7    11     1    1
     8     1     2   ar
     9     2     3   ar
    10     3    23    1
    11    23    24   am
    12    24    25    1
    13    24    26    2
    14     3     4   ar
    15     4     5   ar
    16     5    16    1
    17    16    17   ar
    18    17    18   ar
    19    18    19    1
    20    18    20   ar
    21    20    21   ar
    22    21    22    1
    23     5     6   ar
    24    11    12   ar
    25    12    13    1
    26    12     7   ar
    27     6     1   ar
    28    21    16   ar
    29    23    27    1
@<TRIPOS>MOLECULE
*****
 27 29 0 0 0
SMALL
GASTEIGER

@<TRIPOS>ATOM
      1 C          62.5602   86.3975   12.0162 C.ar    1  UNL1        0.0895
      2 C          61.5192   86.8048   11.0160 C.ar    1  UNL1        0.0538
      3 C          61.2919   88.2575   10.7193 C.ar    1  UNL1        0.1388
      4 N          62.1056   89.3029   11.4229 N.ar    1  UNL1       -0.1948
      5 C          63.1465   88.8956   12.4232 C.ar    1  UNL1        0.2539
      6 N          63.3738   87.4429   12.7198 N.ar    1  UNL1       -0.2098
      7 C          63.3843   82.5495   11.5027 C.ar    1  UNL1        0.1660
      8 C          63.2421   82.0394   12.9062 C.ar    1  UNL1        0.0392
      9 C          62.8727   82.9820   14.0129 C.ar    1  UNL1        0.0033
     10 C          62.6454   84.4347   13.7163 C.ar    1  UNL1        0.0039
     11 C          62.7875   84.9448   12.3129 C.ar    1  UNL1        0.0483
     12 C          63.1569   84.0021   11.2061 C.ar    1  UNL1        0.1752
     13 F          63.2991   84.5123    9.8027 F       1  UNL1       -0.2009
     14 C          63.0161   80.3104   10.2374 C.3     1  UNL1        0.2526
     15 O          63.7537   81.6069   10.3960 O.3     1  UNL1       -0.4692
     16 N          63.9602   89.9410   13.1268 N.ar    1  UNL1       -0.2008
     17 N          64.6650   91.0948   12.4772 N.ar    1  UNL1       -0.1673
     18 C          65.3523   91.8831   13.5525 C.ar    1  UNL1        0.0806
     19 C          66.1752   93.1206   13.3492 C.3     1  UNL1        0.0540
     20 C          65.0723   91.2165   14.8667 C.ar    1  UNL1        0.0313
     21 C          64.2119   90.0162   14.6036 C.ar    1  UNL1        0.0651
     22 C          63.6942   89.0592   15.6361 C.3     1  UNL1        0.0523
     23 N          60.2510   88.6648    9.7191 N.am    1  UNL1       -0.2692
     24 C          60.1091   87.9059    8.4330 C.2     1  UNL1        0.2277
     25 C          59.0681   88.3131    7.4328 C.3     1  UNL1        0.0950
     26 O          61.0081   86.7397    8.1472 O.2     1  UNL1       -0.2747
     27 H          59.6609   89.4302    9.9066 H       1  UNL1        0.1563
@<TRIPOS>BOND
     1    14    15    1
     2    15     7    1
     3     7     8   ar
     4     8     9   ar
     5     9    10   ar
     6    10    11   ar
     7    11     1    1
     8     1     2   ar
     9     2     3   ar
    10     3    23    1
    11    23    24   am
    12    24    25    1
    13    24    26    2
    14     3     4   ar
    15     4     5   ar
    16     5    16    1
    17    16    17   ar
    18    17    18   ar
    19    18    19    1
    20    18    20   ar
    21    20    21   ar
    22    21    22    1
    23     5     6   ar
    24    11    12   ar
    25    12    13    1
    26    12     7   ar
    27     6     1   ar
    28    21    16   ar
    29    23    27    1
@<TRIPOS>MOLECULE
*****
 27 29 0 0 0
SMALL
GASTEIGER

@<TRIPOS>ATOM
      1 C          61.9515   87.3520   10.9003 C.ar    1  UNL1        0.0895
      2 C          62.5586   88.6099   11.4471 C.ar    1  UNL1        0.0538
      3 C          63.4152   88.5560   12.6774 C.ar    1  UNL1        0.1388
      4 N          63.6647   87.2442   13.3606 N.ar    1  UNL1       -0.1948
      5 C          63.0576   85.9862   12.8137 C.ar    1  UNL1        0.2539
      6 N          62.2010   86.0402   11.5835 N.ar    1  UNL1       -0.2098
      7 C          59.8082   88.7845    7.8830 C.ar    1  UNL1        0.1660
      8 C          59.3816   87.5137    7.2098 C.ar    1  UNL1        0.0392
      9 C          59.8117   86.1890    7.7668 C.ar    1  UNL1        0.0033
     10 C          60.6683   86.1351    8.9969 C.ar    1  UNL1        0.0039
     11 C          61.0948   87.4059    9.6701 C.ar    1  UNL1        0.0483
     12 C          60.6648   88.7306    9.1131 C.ar    1  UNL1        0.1752
     13 F          61.0913   90.0014    9.7863 F       1  UNL1       -0.2009
     14 C          59.0716   90.2442    5.8639 C.3     1  UNL1        0.2526
     15 O          59.3781   90.1092    7.3260 O.3     1  UNL1       -0.4692
     16 N          63.3071   84.6744   13.4969 N.ar    1  UNL1       -0.2008
     17 N          63.2232   83.3187   12.8605 N.ar    1  UNL1       -0.1673
     18 C          63.5486   82.2944   13.9068 C.ar    1  UNL1        0.0806
     19 C          63.5829   80.8084   13.7053 C.3     1  UNL1        0.0540
     20 C          63.8336   83.0170   15.1900 C.ar    1  UNL1        0.0313
     21 C          63.6844   84.4879   14.9367 C.ar    1  UNL1        0.0651
     22 C          63.8784   85.5804   15.9460 C.3     1  UNL1        0.0523
     23 N          64.0223   89.8139   13.2242 N.am    1  UNL1       -0.2692
     24 C          63.6348   90.3021   14.5886 C.2     1  UNL1        0.2277
     25 C          64.2419   91.5599   15.1355 C.3     1  UNL1        0.0950
     26 O          62.6403   89.5323   15.4061 O.2     1  UNL1       -0.2747
     27 H          64.6750   90.3191   12.6877 H       1  UNL1        0.1563
@<TRIPOS>BOND
     1    14    15    1
     2    15     7    1
     3     7     8   ar
     4     8     9   ar
     5     9    10   ar
     6    10    11   ar
     7    11     1    1
     8     1     2   ar
     9     2     3   ar
    10     3    23    1
    11    23    24   am
    12    24    25    1
    13    24    26    2
    14     3     4   ar
    15     4     5   ar
    16     5    16    1
    17    16    17   ar
    18    17    18   ar
    19    18    19    1
    20    18    20   ar
    21    20    21   ar
    22    21    22    1
    23     5     6   ar
    24    11    12   ar
    25    12    13    1
    26    12     7   ar
    27     6     1   ar
    28    21    16   ar
    29    23    27    1
@<TRIPOS>MOLECULE
*****
 27 29 0 0 0
SMALL
GASTEIGER

@<TRIPOS>ATOM
      1 C          64.2422   89.7154   13.2444 C.ar    1  UNL1        0.0895
      2 C          64.4507   88.5549   14.1716 C.ar    1  UNL1        0.0538
      3 C          63.7445   87.2560   13.9181 C.ar    1  UNL1        0.1388
      4 N          62.8298   87.1177   12.7373 N.ar    1  UNL1       -0.1948
      5 C          62.6213   88.2783   11.8101 C.ar    1  UNL1        0.2539
      6 N          63.3275   89.5771   12.0637 N.ar    1  UNL1       -0.2098
      7 C          65.8289   93.3020   12.6371 C.ar    1  UNL1        0.1660
      8 C          66.3607   93.6120   14.0049 C.ar    1  UNL1        0.0392
      9 C          66.1863   92.6232   15.1193 C.ar    1  UNL1        0.0033
     10 C          65.4801   91.3244   14.8658 C.ar    1  UNL1        0.0039
     11 C          64.9484   91.0143   13.4980 C.ar    1  UNL1        0.0483
     12 C          65.1228   92.0032   12.3836 C.ar    1  UNL1        0.1752
     13 F          64.5909   91.6931   11.0157 F       1  UNL1       -0.2009
     14 C          66.8453   93.9386   10.3324 C.3     1  UNL1        0.2526
     15 O          66.0033   94.2908   11.5227 O.3     1  UNL1       -0.4692
     16 N          61.7066   88.1400   10.6293 N.ar    1  UNL1       -0.2008
     17 N          61.6066   86.9463    9.7265 N.ar    1  UNL1       -0.1673
     18 C          60.5695   87.2396    8.6833 C.ar    1  UNL1        0.0806
     19 C          60.1475   86.3195    7.5764 C.3     1  UNL1        0.0540
     20 C          60.0285   88.6146    8.9413 C.ar    1  UNL1        0.0313
     21 C          60.7312   89.1710   10.1441 C.ar    1  UNL1        0.0651
     22 C          60.4993   90.5215   10.7543 C.3     1  UNL1        0.0523
     23 N          63.9530   86.0955   14.8453 N.am    1  UNL1       -0.2692
     24 C          64.0699   84.7058   14.2929 C.2     1  UNL1        0.2277
     25 C          64.2784   83.5454   15.2201 C.3     1  UNL1        0.0950
     26 O          63.9783   84.4766   12.8134 O.2     1  UNL1       -0.2747
     27 H          64.0132   86.2460   15.8163 H       1  UNL1        0.1563
@<TRIPOS>BOND
     1    14    15    1
     2    15     7    1
     3     7     8   ar
     4     8     9   ar
     5     9    10   ar
     6    10    11   ar
     7    11     1    1
     8     1     2   ar
     9     2     3   ar
    10     3    23    1
    11    23    24   am
    12    24    25    1
    13    24    26    2
    14     3     4   ar
    15     4     5   ar
    16     5    16    1
    17    16    17   ar
    18    17    18   ar
    19    18    19    1
    20    18    20   ar
    21    20    21   ar
    22    21    22    1
    23     5     6   ar
    24    11    12   ar
    25    12    13    1
    26    12     7   ar
    27     6     1   ar
    28    21    16   ar
    29    23    27    1
@<TRIPOS>MOLECULE
*****
 27 29 0 0 0
SMALL
GASTEIGER

@<TRIPOS>ATOM
      1 C          63.1199   89.8418   11.4223 C.ar    1  UNL1        0.0895
      2 C          62.0705   90.2332   10.4246 C.ar    1  UNL1        0.0538
      3 C          61.1688   89.1890    9.8358 C.ar    1  UNL1        0.1388
      4 N          61.3167   87.7534   10.2447 N.ar    1  UNL1       -0.1948
      5 C          62.3662   87.3620   11.2424 C.ar    1  UNL1        0.2539
      6 N          63.2677   88.4062   11.8312 N.ar    1  UNL1       -0.2098
      7 C          65.2102   91.9294   14.0724 C.ar    1  UNL1        0.1660
      8 C          65.8247   92.9743   13.1890 C.ar    1  UNL1        0.0392
      9 C          65.5377   92.9751   11.7167 C.ar    1  UNL1        0.0033
     10 C          64.6361   91.9310   11.1278 C.ar    1  UNL1        0.0039
     11 C          64.0215   90.8860   12.0112 C.ar    1  UNL1        0.0483
     12 C          64.3086   90.8853   13.4835 C.ar    1  UNL1        0.1752
     13 F          63.6940   89.8403   14.3669 F       1  UNL1       -0.2009
     14 C          64.3659   91.9123   16.5293 C.3     1  UNL1        0.2526
     15 O          65.4973   91.9287   15.5446 O.3     1  UNL1       -0.4692
     16 N          62.5140   85.9264   11.6513 N.ar    1  UNL1       -0.2008
     17 N          62.3884   85.3895   13.0463 N.ar    1  UNL1       -0.1673
     18 C          62.6102   83.9069   12.9942 C.ar    1  UNL1        0.0806
     19 C          62.5754   82.9686   14.1639 C.3     1  UNL1        0.0540
     20 C          62.8729   83.5275   11.5669 C.ar    1  UNL1        0.0313
     21 C          62.8134   84.7756   10.7370 C.ar    1  UNL1        0.0651
     22 C          63.0175   84.8583    9.2533 C.3     1  UNL1        0.0523
     23 N          60.1194   89.5804    8.8381 N.am    1  UNL1       -0.2692
     24 C          59.7044   88.6145    7.7681 C.2     1  UNL1        0.2277
     25 C          58.6549   89.0059    6.7704 C.3     1  UNL1        0.0950
     26 O          60.3388   87.2573    7.6958 O.2     1  UNL1       -0.2747
     27 H          59.7029   90.4712    8.8855 H       1  UNL1        0.1563
@<TRIPOS>BOND
     1    14    15    1
     2    15     7    1
     3     7     8   ar
     4     8     9   ar
     5     9    10   ar
     6    10    11   ar
     7    11     1    1
     8     1     2   ar
     9     2     3   ar
    10     3    23    1
    11    23    24   am
    12    24    25    1
    13    24    26    2
    14     3     4   ar
    15     4     5   ar
    16     5    16    1
    17    16    17   ar
    18    17    18   ar
    19    18    19    1
    20    18    20   ar
    21    20    21   ar
    22    21    22    1
    23     5     6   ar
    24    11    12   ar
    25    12    13    1
    26    12     7   ar
    27     6     1   ar
    28    21    16   ar
    29    23    27    1
