@<TRIPOS>MOLECULE
*****
 58 65 0 0 0
SMALL
GASTEIGER

@<TRIPOS>ATOM
      1 C          66.4044   92.5373   13.7049 C.ar    1  UNL1        0.0560
      2 C          66.9588   93.8843   14.0630 C.ar    1  UNL1        0.0444
      3 C          67.9135   94.0211   15.2118 C.ar    1  UNL1        0.1726
      4 C          68.3137   92.8109   16.0027 C.ar    1  UNL1        0.1736
      5 C          67.7593   91.4640   15.6446 C.ar    1  UNL1        0.0548
      6 C          66.8046   91.3272   14.4958 C.ar    1  UNL1        0.0569
      7 N          63.6683   91.5935   11.1187 N.ar    1  UNL1       -0.1285
      8 N          64.2928   92.7864   10.4577 N.ar    1  UNL1       -0.0406
      9 N          65.3937   93.2852   11.3460 N.ar    1  UNL1       -0.1074
     10 C          65.4497   92.4005   12.5561 C.ar    1  UNL1        0.2075
     11 N          64.3833   91.3550   12.4156 N.ar    1  UNL1       -0.1253
     12 C          60.2501   89.1579    9.4960 C.ar    1  UNL1       -0.0207
     13 C          61.6614   88.8091    9.1264 C.ar    1  UNL1       -0.0026
     14 C          62.8008   89.6210    9.6673 C.ar    1  UNL1        0.0206
     15 C          62.5289   90.7817   10.5778 C.ar    1  UNL1        0.1045
     16 C          61.1176   91.1304   10.9474 C.ar    1  UNL1        0.0206
     17 C          59.9782   90.3186   10.4065 C.ar    1  UNL1       -0.0026
     18 C          59.1107   88.3460    8.9551 C.3     1  UNL1        0.0437
     19 C          58.9938   88.1079    7.4787 C.3     1  UNL1        0.0771
     20 C          60.4219   93.1303    3.0081 C.ar    1  UNL1        0.1721
     21 C          59.1336   92.7436    3.6720 C.ar    1  UNL1        0.0356
     22 C          59.0986   91.5846    4.6237 C.ar    1  UNL1       -0.0202
     23 C          60.3520   90.8124    4.9114 C.ar    1  UNL1       -0.0068
     24 C          61.6403   91.1991    4.2475 C.ar    1  UNL1        0.0368
     25 C          61.6752   92.3580    3.2958 C.ar    1  UNL1        0.1721
     26 C          60.3171   89.6535    5.8631 C.3     1  UNL1        0.0990
     27 N          59.0288   89.2668    6.5270 N.3     1  UNL1       -0.2683
     28 C          57.7755   90.0391    6.2392 C.3     1  UNL1        0.0771
     29 C          57.8104   91.1980    5.2876 C.3     1  UNL1        0.0435
     30 C          59.5478   94.3077    0.8634 C.3     1  UNL1        0.2526
     31 O          60.4568   94.2892    2.0564 O.3     1  UNL1       -0.4684
     32 O          62.9635   92.7448    2.6319 O.3     1  UNL1       -0.4684
     33 C          63.0604   92.7612    1.1351 C.3     1  UNL1        0.2526
     34 N          66.2501   89.9801   14.1377 N.am    1  UNL1       -0.2777
     35 C          64.8948   89.5711   14.6335 C.2     1  UNL1        0.2843
     36 O          64.0940   90.5089   15.4874 O.2     1  UNL1       -0.2665
     37 H          66.7757   89.3646   13.5772 H       1  UNL1        0.1553
     38 C          64.3403   88.2241   14.2755 C.ar    1  UNL1        0.2017
     39 C          63.5216   88.0571   13.0298 C.ar    1  UNL1        0.0843
     40 C          62.9671   86.7102   12.6717 C.ar    1  UNL1        0.2018
     41 O          62.1483   86.5432   11.4259 O.2     1  UNL1       -0.2864
     42 C          63.2312   85.5303   13.5594 C.ar    1  UNL1        0.0735
     43 C          62.6767   84.1832   13.2013 C.ar    1  UNL1        0.0062
     44 C          62.9408   83.0033   14.0889 C.ar    1  UNL1        0.0004
     45 C          63.7595   83.1703   15.3347 C.ar    1  UNL1        0.0031
     46 C          64.3141   84.5173   15.6928 C.ar    1  UNL1        0.0376
     47 C          64.0499   85.6973   14.8051 C.ar    1  UNL1        0.1485
     48 O          64.6045   87.0441   15.1632 O.2     1  UNL1       -0.4487
     49 C          62.3863   81.6563   13.7309 C.ar    1  UNL1        0.0031
     50 C          61.0978   81.1896   14.3405 C.ar    1  UNL1        0.0207
     51 C          60.5433   79.8426   13.9825 C.ar    1  UNL1        0.0989
     52 N          61.2774   78.9624   13.0147 N.ar    1  UNL1       -0.2423
     53 C          62.5659   79.4293   12.4051 C.ar    1  UNL1        0.0989
     54 C          63.1204   80.7762   12.7632 C.ar    1  UNL1        0.0207
     55 O          68.4679   95.3681   15.5699 O.3     1  UNL1       -0.4684
     56 C          69.8840   95.4932   16.0485 C.3     1  UNL1        0.2526
     57 O          69.2684   92.9478   17.1515 O.3     1  UNL1       -0.4683
     58 C          70.5035   92.0984   17.2055 C.3     1  UNL1        0.2526
@<TRIPOS>BOND
     1    30    31    1
     2    31    20    1
     3    20    21   ar
     4    21    22   ar
     5    22    23   ar
     6    23    24   ar
     7    24    25   ar
     8    25    32    1
     9    32    33    1
    10    23    26    1
    11    26    27    1
    12    27    19    1
    13    19    18    1
    14    18    12    1
    15    12    13   ar
    16    13    14   ar
    17    14    15   ar
    18    15     7    1
    19     7     8   ar
    20     8     9   ar
    21     9    10   ar
    22    10     1    1
    23     1     2   ar
    24     2     3   ar
    25     3    55    1
    26    55    56    1
    27     3     4   ar
    28     4    57    1
    29    57    58    1
    30     4     5   ar
    31     5     6   ar
    32     6    34    1
    33    34    35   am
    34    35    36    2
    35    35    38    1
    36    38    39   ar
    37    39    40   ar
    38    40    41    2
    39    40    42   ar
    40    42    43   ar
    41    43    44   ar
    42    44    49    1
    43    49    50   ar
    44    50    51   ar
    45    51    52   ar
    46    52    53   ar
    47    53    54   ar
    48    44    45   ar
    49    45    46   ar
    50    46    47   ar
    51    47    48   ar
    52    10    11   ar
    53    15    16   ar
    54    16    17   ar
    55    27    28    1
    56    28    29    1
    57    25    20   ar
    58    17    12   ar
    59    29    22    1
    60    11     7   ar
    61     6     1   ar
    62    48    38   ar
    63    47    42   ar
    64    54    49   ar
    65    34    37    1
