@<TRIPOS>MOLECULE
*****
 26 28 0 0 0
SMALL
GASTEIGER

@<TRIPOS>ATOM
      1 C          63.9889   84.2381   13.0250 C.ar    1  UNL1        0.0981
      2 N          65.0569   84.2043   14.0777 N.ar    1  UNL1       -0.2425
      3 C          65.3570   85.4348   14.8813 C.ar    1  UNL1        0.0989
      4 C          64.5890   86.6990   14.6323 C.ar    1  UNL1        0.0205
      5 C          63.5210   86.7328   13.5797 C.ar    1  UNL1        0.0025
      6 C          63.2209   85.5024   12.7760 C.ar    1  UNL1        0.0403
      7 N          62.7615   81.8982   12.6205 N.ar    1  UNL1       -0.2513
      8 N          62.7628   80.8755   11.5233 N.ar    1  UNL1       -0.1677
      9 C          63.6908   81.3529   10.4458 C.ar    1  UNL1        0.1217
     10 C          64.2630   82.6707   10.8772 C.ar    1  UNL1        0.0427
     11 C          63.6887   83.0077   12.2213 C.ar    1  UNL1        0.0967
     12 C          60.9103   80.7773   14.0582 C.3     1  UNL1        0.0263
     13 C          61.9717   81.8244   13.8936 C.3     1  UNL1        0.1054
     14 C          62.2433   82.7976   15.0022 C.3     1  UNL1        0.0263
     15 C          62.1529   85.5361   11.7233 C.3     1  UNL1        0.2335
     16 O          62.4746   86.0303   10.3440 O.3     1  UNL1       -0.4704
     17 C          61.4716   86.8503    9.5882 C.ar    1  UNL1        0.1451
     18 C          60.6934   86.2339    8.4637 C.ar    1  UNL1        0.0372
     19 C          59.6903   87.0540    7.7078 C.ar    1  UNL1        0.0062
     20 C          59.4654   88.4905    8.0764 C.ar    1  UNL1        0.0369
     21 C          60.2436   89.1069    9.2009 C.ar    1  UNL1        0.1397
     22 O          60.0187   90.5434    9.5695 O.3     1  UNL1       -0.5053
     23 C          61.2467   88.2869    9.9568 C.ar    1  UNL1        0.1097
     24 H          59.3922   91.0557    9.0974 H       1  UNL1        0.2922
     25 C          62.0248   88.9033   11.0813 C.2     1  UNL1        0.2402
     26 O          61.3037   89.5109   12.2477 O.2     1  UNL1       -0.2829
@<TRIPOS>BOND
     1    12    13    1
     2    13    14    1
     3    13     7    1
     4     7     8   ar
     5     8     9   ar
     6     9    10   ar
     7    10    11   ar
     8    11     1    1
     9     1     2   ar
    10     2     3   ar
    11     3     4   ar
    12     4     5   ar
    13     5     6   ar
    14     6    15    1
    15    15    16    1
    16    16    17    1
    17    17    18   ar
    18    18    19   ar
    19    19    20   ar
    20    20    21   ar
    21    21    22    1
    22    21    23   ar
    23    23    25    1
    24    25    26    2
    25    11     7   ar
    26     6     1   ar
    27    23    17   ar
    28    22    24    1
@<TRIPOS>MOLECULE
*****
 26 28 0 0 0
SMALL
GASTEIGER

@<TRIPOS>ATOM
      1 C          61.0560   88.1231   10.0442 C.ar    1  UNL1        0.0981
      2 N          60.5316   88.9666    8.9202 N.ar    1  UNL1       -0.2425
      3 C          59.9405   88.3144    7.7056 C.ar    1  UNL1        0.0989
      4 C          59.8739   86.8186    7.6151 C.ar    1  UNL1        0.0205
      5 C          60.3983   85.9750    8.7390 C.ar    1  UNL1        0.0025
      6 C          60.9893   86.6273    9.9536 C.ar    1  UNL1        0.0403
      7 N          60.8960   89.5664   12.2883 N.ar    1  UNL1       -0.2513
      8 N          61.8776   90.0310   13.3230 N.ar    1  UNL1       -0.1677
      9 C          63.2355   89.5269   12.9328 C.ar    1  UNL1        0.1217
     10 C          63.0930   88.7509   11.6571 C.ar    1  UNL1        0.0427
     11 C          61.6471   88.7753   11.2588 C.ar    1  UNL1        0.0967
     12 C          58.8872   91.0455   11.5622 C.3     1  UNL1        0.0263
     13 C          59.4219   89.8443   12.2840 C.3     1  UNL1        0.1054
     14 C          58.4826   88.9208   13.0016 C.3     1  UNL1        0.0263
     15 C          61.5138   85.7837   11.0776 C.3     1  UNL1        0.2335
     16 O          62.7356   84.9378   10.8736 O.3     1  UNL1       -0.4704
     17 C          63.0149   83.7888   11.7965 C.ar    1  UNL1        0.1451
     18 C          62.7575   82.3825   11.3426 C.ar    1  UNL1        0.0372
     19 C          63.0369   81.2335   12.2656 C.ar    1  UNL1        0.0062
     20 C          63.5737   81.4908   13.6423 C.ar    1  UNL1        0.0369
     21 C          63.8312   82.8971   14.0962 C.ar    1  UNL1        0.1397
     22 O          64.3680   83.1545   15.4730 O.3     1  UNL1       -0.5053
     23 C          63.5518   84.0461   13.1733 C.ar    1  UNL1        0.1097
     24 H          64.5425   82.4368   16.0495 H       1  UNL1        0.2922
     25 C          63.8092   85.4524   13.6272 C.2     1  UNL1        0.2402
     26 O          63.4280   85.8742   15.0152 O.2     1  UNL1       -0.2829
@<TRIPOS>BOND
     1    12    13    1
     2    13    14    1
     3    13     7    1
     4     7     8   ar
     5     8     9   ar
     6     9    10   ar
     7    10    11   ar
     8    11     1    1
     9     1     2   ar
    10     2     3   ar
    11     3     4   ar
    12     4     5   ar
    13     5     6   ar
    14     6    15    1
    15    15    16    1
    16    16    17    1
    17    17    18   ar
    18    18    19   ar
    19    19    20   ar
    20    20    21   ar
    21    21    22    1
    22    21    23   ar
    23    23    25    1
    24    25    26    2
    25    11     7   ar
    26     6     1   ar
    27    23    17   ar
    28    22    24    1
@<TRIPOS>MOLECULE
*****
 26 28 0 0 0
SMALL
GASTEIGER

@<TRIPOS>ATOM
      1 C          64.0163   84.2482   13.0419 C.ar    1  UNL1        0.0981
      2 N          65.0898   84.2078   14.0886 N.ar    1  UNL1       -0.2425
      3 C          65.3999   85.4355   14.8927 C.ar    1  UNL1        0.0989
      4 C          64.6363   86.7036   14.6500 C.ar    1  UNL1        0.0205
      5 C          63.5627   86.7440   13.6032 C.ar    1  UNL1        0.0025
      6 C          63.2527   85.5163   12.7992 C.ar    1  UNL1        0.0403
      7 N          62.7689   81.9191   12.6360 N.ar    1  UNL1       -0.2513
      8 N          62.7623   80.8965   11.5387 N.ar    1  UNL1       -0.1677
      9 C          63.6956   81.3658   10.4622 C.ar    1  UNL1        0.1217
     10 C          64.2789   82.6785   10.8943 C.ar    1  UNL1        0.0427
     11 C          63.7062   83.0204   12.2377 C.ar    1  UNL1        0.0967
     12 C          60.9257   80.7967   14.0827 C.3     1  UNL1        0.0263
     13 C          61.9771   81.8522   13.9082 C.3     1  UNL1        0.1054
     14 C          62.2368   82.8407   15.0061 C.3     1  UNL1        0.0263
     15 C          62.1791   85.5567   11.7524 C.3     1  UNL1        0.2335
     16 O          62.4507   86.1980   10.4238 O.3     1  UNL1       -0.4704
     17 C          61.7576   87.4751   10.0518 C.ar    1  UNL1        0.1451
     18 C          62.0188   88.7264   10.8367 C.ar    1  UNL1        0.0372
     19 C          61.3256   90.0036   10.4647 C.ar    1  UNL1        0.0062
     20 C          60.3713   90.0294    9.3078 C.ar    1  UNL1        0.0369
     21 C          60.1100   88.7782    8.5228 C.ar    1  UNL1        0.1397
     22 O          59.1557   88.8040    7.3659 O.3     1  UNL1       -0.5053
     23 C          60.8032   87.5010    8.8949 C.ar    1  UNL1        0.1097
     24 H          58.7227   89.6018    7.1335 H       1  UNL1        0.2922
     25 C          60.5419   86.2498    8.1099 C.2     1  UNL1        0.2402
     26 O          59.2411   86.0781    7.3832 O.2     1  UNL1       -0.2829
@<TRIPOS>BOND
     1    12    13    1
     2    13    14    1
     3    13     7    1
     4     7     8   ar
     5     8     9   ar
     6     9    10   ar
     7    10    11   ar
     8    11     1    1
     9     1     2   ar
    10     2     3   ar
    11     3     4   ar
    12     4     5   ar
    13     5     6   ar
    14     6    15    1
    15    15    16    1
    16    16    17    1
    17    17    18   ar
    18    18    19   ar
    19    19    20   ar
    20    20    21   ar
    21    21    22    1
    22    21    23   ar
    23    23    25    1
    24    25    26    2
    25    11     7   ar
    26     6     1   ar
    27    23    17   ar
    28    22    24    1
@<TRIPOS>MOLECULE
*****
 26 28 0 0 0
SMALL
GASTEIGER

@<TRIPOS>ATOM
      1 C          66.3178   93.4489   12.6406 C.ar    1  UNL1        0.0981
      2 N          67.1948   93.9032   13.7694 N.ar    1  UNL1       -0.2425
      3 C          67.1510   93.1887   15.0876 C.ar    1  UNL1        0.0989
      4 C          66.2302   92.0198   15.2768 C.ar    1  UNL1        0.0205
      5 C          65.3532   91.5655   14.1480 C.ar    1  UNL1        0.0025
      6 C          65.3970   92.2800   12.8299 C.ar    1  UNL1        0.0403
      7 N          67.1623   93.7519   10.1226 N.ar    1  UNL1       -0.2513
      8 N          66.9079   94.7490    9.0313 N.ar    1  UNL1       -0.1677
      9 C          65.9498   95.7768    9.5566 C.ar    1  UNL1        0.1217
     10 C          65.6122   95.4149   10.9726 C.ar    1  UNL1        0.0427
     11 C          66.3615   94.1634   11.3224 C.ar    1  UNL1        0.0967
     12 C          68.6787   92.1795    8.7162 C.3     1  UNL1        0.0263
     13 C          68.0599   92.5537   10.0304 C.3     1  UNL1        0.1054
     14 C          68.3387   91.7296   11.2523 C.3     1  UNL1        0.0263
     15 C          64.5199   91.8257   11.7009 C.3     1  UNL1        0.2335
     16 O          63.1317   91.3317   11.9817 O.3     1  UNL1       -0.4704
     17 C          62.6536   90.0490   11.3685 C.ar    1  UNL1        0.1451
     18 C          61.8622   90.0759   10.0946 C.ar    1  UNL1        0.0372
     19 C          61.3842   88.7930    9.4814 C.ar    1  UNL1        0.0062
     20 C          61.6976   87.4834   10.1422 C.ar    1  UNL1        0.0369
     21 C          62.4891   87.4565   11.4161 C.ar    1  UNL1        0.1397
     22 O          62.8025   86.1469   12.0769 O.3     1  UNL1       -0.5053
     23 C          62.9671   88.7393   12.0293 C.ar    1  UNL1        0.1097
     24 H          62.5039   85.3456   11.6939 H       1  UNL1        0.2922
     25 C          63.7585   88.7124   13.3032 C.2     1  UNL1        0.2402
     26 O          63.7868   87.4696   14.1425 O.2     1  UNL1       -0.2829
@<TRIPOS>BOND
     1    12    13    1
     2    13    14    1
     3    13     7    1
     4     7     8   ar
     5     8     9   ar
     6     9    10   ar
     7    10    11   ar
     8    11     1    1
     9     1     2   ar
    10     2     3   ar
    11     3     4   ar
    12     4     5   ar
    13     5     6   ar
    14     6    15    1
    15    15    16    1
    16    16    17    1
    17    17    18   ar
    18    18    19   ar
    19    19    20   ar
    20    20    21   ar
    21    21    22    1
    22    21    23   ar
    23    23    25    1
    24    25    26    2
    25    11     7   ar
    26     6     1   ar
    27    23    17   ar
    28    22    24    1
@<TRIPOS>MOLECULE
*****
 26 28 0 0 0
SMALL
GASTEIGER

@<TRIPOS>ATOM
      1 C          62.6112   86.2242   11.7493 C.ar    1  UNL1        0.0981
      2 N          61.8047   85.4114   10.7803 N.ar    1  UNL1       -0.2425
      3 C          61.0326   86.0934    9.6900 C.ar    1  UNL1        0.0989
      4 C          61.0670   87.5880    9.5686 C.ar    1  UNL1        0.0205
      5 C          61.8735   88.4008   10.5376 C.ar    1  UNL1        0.0025
      6 C          62.6456   87.7189   11.6279 C.ar    1  UNL1        0.0403
      7 N          63.8454   84.1153   12.8329 N.ar    1  UNL1       -0.2513
      8 N          64.5765   83.8587   14.1173 N.ar    1  UNL1       -0.1677
      9 C          64.5662   85.1272   14.9179 C.ar    1  UNL1        0.1217
     10 C          63.8288   86.1677   14.1283 C.ar    1  UNL1        0.0427
     11 C          63.3833   85.5423   12.8397 C.ar    1  UNL1        0.0967
     12 C          64.4420   83.1800   10.4836 C.3     1  UNL1        0.0263
     13 C          63.6166   83.1196   11.7346 C.3     1  UNL1        0.1054
     14 C          62.5624   82.0635   11.8872 C.3     1  UNL1        0.0263
     15 C          63.4522   88.5317   12.5969 C.3     1  UNL1        0.2335
     16 O          63.0905   89.9638   12.8577 O.3     1  UNL1       -0.4704
     17 C          64.0460   91.0585   12.4853 C.ar    1  UNL1        0.1451
     18 C          64.1133   91.5453   11.0681 C.ar    1  UNL1        0.0372
     19 C          65.0689   92.6400   10.6957 C.ar    1  UNL1        0.0062
     20 C          65.9571   93.2478   11.7405 C.ar    1  UNL1        0.0369
     21 C          65.8897   92.7610   13.1577 C.ar    1  UNL1        0.1397
     22 O          66.7779   93.3689   14.2025 O.3     1  UNL1       -0.5053
     23 C          64.9342   91.6664   13.5301 C.ar    1  UNL1        0.1097
     24 H          67.3747   94.0527   13.9699 H       1  UNL1        0.2922
     25 C          64.8668   91.1796   14.9473 C.2     1  UNL1        0.2402
     26 O          63.7034   91.5572   15.8155 O.2     1  UNL1       -0.2829
@<TRIPOS>BOND
     1    12    13    1
     2    13    14    1
     3    13     7    1
     4     7     8   ar
     5     8     9   ar
     6     9    10   ar
     7    10    11   ar
     8    11     1    1
     9     1     2   ar
    10     2     3   ar
    11     3     4   ar
    12     4     5   ar
    13     5     6   ar
    14     6    15    1
    15    15    16    1
    16    16    17    1
    17    17    18   ar
    18    18    19   ar
    19    19    20   ar
    20    20    21   ar
    21    21    22    1
    22    21    23   ar
    23    23    25    1
    24    25    26    2
    25    11     7   ar
    26     6     1   ar
    27    23    17   ar
    28    22    24    1
@<TRIPOS>MOLECULE
*****
 26 28 0 0 0
SMALL
GASTEIGER

@<TRIPOS>ATOM
      1 C          62.6831   88.9630   11.8349 C.ar    1  UNL1        0.0981
      2 N          63.0344   90.4128   11.9918 N.ar    1  UNL1       -0.2425
      3 C          63.9515   90.8469   13.0964 C.ar    1  UNL1        0.0989
      4 C          64.5174   89.8312   14.0442 C.ar    1  UNL1        0.0205
      5 C          64.1661   88.3814   13.8873 C.ar    1  UNL1        0.0025
      6 C          63.2489   87.9473   12.7826 C.ar    1  UNL1        0.0403
      7 N          60.2946   88.8081   10.6448 N.ar    1  UNL1       -0.2513
      8 N          59.7783   88.1910    9.3788 N.ar    1  UNL1       -0.1677
      9 C          60.9306   87.5303    8.6818 C.ar    1  UNL1        0.1217
     10 C          62.1589   87.7391    9.5170 C.ar    1  UNL1        0.0427
     11 C          61.7659   88.5288   10.7302 C.ar    1  UNL1        0.0967
     12 C          59.2838   91.0485   11.4868 C.3     1  UNL1        0.0263
     13 C          59.4821   89.5706   11.6490 C.3     1  UNL1        0.1054
     14 C          58.8680   88.8551   12.8156 C.3     1  UNL1        0.0263
     15 C          62.8975   86.4975   12.6257 C.3     1  UNL1        0.2335
     16 O          63.8389   85.4398   13.1208 O.3     1  UNL1       -0.4704
     17 C          63.5453   83.9923   12.8591 C.ar    1  UNL1        0.1451
     18 C          63.8262   83.4022   11.5090 C.ar    1  UNL1        0.0372
     19 C          63.5326   81.9546   11.2473 C.ar    1  UNL1        0.0062
     20 C          62.9580   81.0972   12.3358 C.ar    1  UNL1        0.0369
     21 C          62.6772   81.6873   13.6859 C.ar    1  UNL1        0.1397
     22 O          62.1026   80.8300   14.7744 O.3     1  UNL1       -0.5053
     23 C          62.9708   83.1348   13.9476 C.ar    1  UNL1        0.1097
     24 H          61.9192   79.9257   14.6109 H       1  UNL1        0.2922
     25 C          62.6899   83.7249   15.2978 C.2     1  UNL1        0.2402
     26 O          61.6406   84.7861   15.4489 O.2     1  UNL1       -0.2829
@<TRIPOS>BOND
     1    12    13    1
     2    13    14    1
     3    13     7    1
     4     7     8   ar
     5     8     9   ar
     6     9    10   ar
     7    10    11   ar
     8    11     1    1
     9     1     2   ar
    10     2     3   ar
    11     3     4   ar
    12     4     5   ar
    13     5     6   ar
    14     6    15    1
    15    15    16    1
    16    16    17    1
    17    17    18   ar
    18    18    19   ar
    19    19    20   ar
    20    20    21   ar
    21    21    22    1
    22    21    23   ar
    23    23    25    1
    24    25    26    2
    25    11     7   ar
    26     6     1   ar
    27    23    17   ar
    28    22    24    1
@<TRIPOS>MOLECULE
*****
 26 28 0 0 0
SMALL
GASTEIGER

@<TRIPOS>ATOM
      1 C          63.4002   84.0216   11.8546 C.ar    1  UNL1        0.0981
      2 N          64.1769   82.9946   11.0853 N.ar    1  UNL1       -0.2425
      3 C          64.2288   83.0604    9.5876 C.ar    1  UNL1        0.0989
      4 C          63.5041   84.1533    8.8593 C.ar    1  UNL1        0.0205
      5 C          62.7274   85.1803    9.6286 C.ar    1  UNL1        0.0025
      6 C          62.6754   85.1145   11.1262 C.ar    1  UNL1        0.0403
      7 N          62.7870   82.8278   14.1663 N.ar    1  UNL1       -0.2513
      8 N          62.9401   83.1813   15.6160 N.ar    1  UNL1       -0.1677
      9 C          63.5960   84.5279   15.6979 C.ar    1  UNL1        0.1217
     10 C          63.8481   85.0065   14.2988 C.ar    1  UNL1        0.0427
     11 C          63.3481   83.9559   13.3523 C.ar    1  UNL1        0.0967
     12 C          60.8208   81.1313   14.0882 C.3     1  UNL1        0.0263
     13 C          62.1793   81.5675   13.6256 C.3     1  UNL1        0.1054
     14 C          62.9302   80.7433   12.6221 C.3     1  UNL1        0.0263
     15 C          61.8987   86.1416   11.8956 C.3     1  UNL1        0.2335
     16 O          62.6203   87.2317   12.6310 O.3     1  UNL1       -0.4704
     17 C          62.8350   88.5637   11.9756 C.ar    1  UNL1        0.1451
     18 C          62.3991   88.7804   10.5568 C.ar    1  UNL1        0.0372
     19 C          62.6138   90.1125    9.9014 C.ar    1  UNL1        0.0062
     20 C          63.2643   91.2279   10.6648 C.ar    1  UNL1        0.0369
     21 C          63.7001   91.0112   12.0836 C.ar    1  UNL1        0.1397
     22 O          64.3506   92.1265   12.8470 O.3     1  UNL1       -0.5053
     23 C          63.4855   89.6792   12.7390 C.ar    1  UNL1        0.1097
     24 H          64.4847   92.9586   12.4376 H       1  UNL1        0.2922
     25 C          63.9213   89.4625   14.1579 C.2     1  UNL1        0.2402
     26 O          63.4753   90.4093   15.2324 O.2     1  UNL1       -0.2829
@<TRIPOS>BOND
     1    12    13    1
     2    13    14    1
     3    13     7    1
     4     7     8   ar
     5     8     9   ar
     6     9    10   ar
     7    10    11   ar
     8    11     1    1
     9     1     2   ar
    10     2     3   ar
    11     3     4   ar
    12     4     5   ar
    13     5     6   ar
    14     6    15    1
    15    15    16    1
    16    16    17    1
    17    17    18   ar
    18    18    19   ar
    19    19    20   ar
    20    20    21   ar
    21    21    22    1
    22    21    23   ar
    23    23    25    1
    24    25    26    2
    25    11     7   ar
    26     6     1   ar
    27    23    17   ar
    28    22    24    1
@<TRIPOS>MOLECULE
*****
 26 28 0 0 0
SMALL
GASTEIGER

@<TRIPOS>ATOM
      1 C          62.6786   88.6991   11.8585 C.ar    1  UNL1        0.0981
      2 N          63.0138   90.1425   12.0914 N.ar    1  UNL1       -0.2425
      3 C          63.9083   90.5302   13.2313 C.ar    1  UNL1        0.0989
      4 C          64.4677   89.4745   14.1383 C.ar    1  UNL1        0.0205
      5 C          64.1325   88.0311   13.9054 C.ar    1  UNL1        0.0025
      6 C          63.2380   87.6434   12.7655 C.ar    1  UNL1        0.0403
      7 N          60.3281   88.6474   10.5866 N.ar    1  UNL1       -0.2513
      8 N          59.8325   88.0633    9.2970 N.ar    1  UNL1       -0.1677
      9 C          60.9822   87.3662    8.6318 C.ar    1  UNL1        0.1217
     10 C          62.1883   87.5195    9.5104 C.ar    1  UNL1        0.0427
     11 C          61.7840   88.3114   10.7185 C.ar    1  UNL1        0.0967
     12 C          58.7928   88.7215   12.6812 C.3     1  UNL1        0.0263
     13 C          59.5111   89.4302   11.5714 C.3     1  UNL1        0.1054
     14 C          59.4125   90.9217   11.4464 C.3     1  UNL1        0.0263
     15 C          62.9028   86.2000   12.5325 C.3     1  UNL1        0.2335
     16 O          63.6576   85.1278   13.2609 O.3     1  UNL1       -0.4704
     17 C          63.1319   83.7231   13.2825 C.ar    1  UNL1        0.1451
     18 C          62.4382   83.2006   14.5055 C.ar    1  UNL1        0.0372
     19 C          61.9124   81.7958   14.5269 C.ar    1  UNL1        0.0062
     20 C          62.0804   80.9137   13.3255 C.ar    1  UNL1        0.0369
     21 C          62.7742   81.4362   12.1025 C.ar    1  UNL1        0.1397
     22 O          62.9422   80.5541   10.9010 O.3     1  UNL1       -0.5053
     23 C          63.2999   82.8409   12.0809 C.ar    1  UNL1        0.1097
     24 H          62.6138   79.6767   10.9144 H       1  UNL1        0.2922
     25 C          63.9936   83.3634   10.8579 C.2     1  UNL1        0.2402
     26 O          64.8780   82.4581   10.0530 O.2     1  UNL1       -0.2829
@<TRIPOS>BOND
     1    12    13    1
     2    13    14    1
     3    13     7    1
     4     7     8   ar
     5     8     9   ar
     6     9    10   ar
     7    10    11   ar
     8    11     1    1
     9     1     2   ar
    10     2     3   ar
    11     3     4   ar
    12     4     5   ar
    13     5     6   ar
    14     6    15    1
    15    15    16    1
    16    16    17    1
    17    17    18   ar
    18    18    19   ar
    19    19    20   ar
    20    20    21   ar
    21    21    22    1
    22    21    23   ar
    23    23    25    1
    24    25    26    2
    25    11     7   ar
    26     6     1   ar
    27    23    17   ar
    28    22    24    1
@<TRIPOS>MOLECULE
*****
 26 28 0 0 0
SMALL
GASTEIGER

@<TRIPOS>ATOM
      1 C          63.4102   84.1919   11.9100 C.ar    1  UNL1        0.0981
      2 N          64.2836   83.2658   11.1166 N.ar    1  UNL1       -0.2425
      3 C          64.2923   83.3427    9.6187 C.ar    1  UNL1        0.0989
      4 C          63.4276   84.3456    8.9141 C.ar    1  UNL1        0.0205
      5 C          62.5542   85.2716    9.7075 C.ar    1  UNL1        0.0025
      6 C          62.5455   85.1948   11.2055 C.ar    1  UNL1        0.0403
      7 N          62.9165   82.9568   14.2287 N.ar    1  UNL1       -0.2513
      8 N          63.0915   83.3088   15.6763 N.ar    1  UNL1       -0.1677
      9 C          63.6846   84.6847   15.7503 C.ar    1  UNL1        0.1217
     10 C          63.8761   85.1829   14.3485 C.ar    1  UNL1        0.0427
     11 C          63.4015   84.1150   13.4081 C.ar    1  UNL1        0.0967
     12 C          63.1567   80.8451   12.7344 C.3     1  UNL1        0.0263
     13 C          62.3552   81.6721   13.6954 C.3     1  UNL1        0.1054
     14 C          60.9923   81.2144   14.1231 C.3     1  UNL1        0.0263
     15 C          61.6720   86.1208   11.9989 C.3     1  UNL1        0.2335
     16 O          61.2756   87.4504   11.4287 O.3     1  UNL1       -0.4704
     17 C          62.1796   88.6361   11.5921 C.ar    1  UNL1        0.1451
     18 C          63.0523   88.7522   12.8066 C.ar    1  UNL1        0.0372
     19 C          63.9563   89.9381   12.9699 C.ar    1  UNL1        0.0062
     20 C          63.9876   91.0077   11.9188 C.ar    1  UNL1        0.0369
     21 C          63.1150   90.8916   10.7043 C.ar    1  UNL1        0.1397
     22 O          63.1463   91.9612    9.6532 O.3     1  UNL1       -0.5053
     23 C          62.2110   89.7058   10.5409 C.ar    1  UNL1        0.1097
     24 H          63.7110   92.7019    9.7553 H       1  UNL1        0.2922
     25 C          61.3383   89.5897    9.3265 C.2     1  UNL1        0.2402
     26 O          59.8489   89.7088    9.4589 O.2     1  UNL1       -0.2829
@<TRIPOS>BOND
     1    12    13    1
     2    13    14    1
     3    13     7    1
     4     7     8   ar
     5     8     9   ar
     6     9    10   ar
     7    10    11   ar
     8    11     1    1
     9     1     2   ar
    10     2     3   ar
    11     3     4   ar
    12     4     5   ar
    13     5     6   ar
    14     6    15    1
    15    15    16    1
    16    16    17    1
    17    17    18   ar
    18    18    19   ar
    19    19    20   ar
    20    20    21   ar
    21    21    22    1
    22    21    23   ar
    23    23    25    1
    24    25    26    2
    25    11     7   ar
    26     6     1   ar
    27    23    17   ar
    28    22    24    1
