@<TRIPOS>MOLECULE
*****
 34 38 0 0 0
SMALL
GASTEIGER

@<TRIPOS>ATOM
      1 C          62.7453   87.2887   11.7873 C.2     1  UNL1        0.2507
      2 O          63.4046   87.4135   13.1289 O.2     1  UNL1       -0.2698
      3 N          61.9154   88.4175   11.2516 N.am    1  UNL1       -0.2723
      4 C          61.2562   88.2927    9.9100 C.3     1  UNL1        0.1257
      5 C          60.4262   89.4216    9.3743 C.3     1  UNL1        0.1637
      6 O          60.2555   90.6751   10.1802 O.3     1  UNL1       -0.3502
      7 C          60.9147   90.7999   11.5218 C.3     1  UNL1        0.1622
      8 C          61.7446   89.6711   12.0575 C.3     1  UNL1        0.1097
      9 C          63.0004   84.8345    8.6789 C.ar    1  UNL1        0.1390
     10 C          63.2576   83.5281    9.3696 C.ar    1  UNL1        0.0385
     11 C          63.3440   83.4752   10.8661 C.ar    1  UNL1        0.0242
     12 C          63.1733   84.7287   11.6720 C.ar    1  UNL1        0.1074
     13 C          62.9161   86.0351   10.9814 C.ar    1  UNL1        0.0759
     14 C          62.8297   86.0880    9.4848 C.ar    1  UNL1        0.0430
     15 N          63.2597   84.6758   13.1686 N.ar    1  UNL1       -0.1477
     16 N          62.0990   84.6433   14.1182 N.ar    1  UNL1       -0.1447
     17 C          62.6439   84.5935   15.5148 C.ar    1  UNL1        0.1446
     18 C          64.1414   84.5952   15.4284 C.ar    1  UNL1        0.1446
     19 N          64.5219   84.6461   13.9784 N.ar    1  UNL1       -0.1447
     20 C          61.6170   84.5797    6.4946 C.3     1  UNL1        0.2525
     21 O          62.9140   84.8874    7.1823 O.3     1  UNL1       -0.4714
     22 C          62.4039   89.7958   13.3991 C.3     1  UNL1        0.0510
     23 C          63.6318   90.6430   13.5555 C.ar    1  UNL1        0.0086
     24 C          64.2110   91.3508   12.3666 C.ar    1  UNL1        0.0189
     25 C          65.4390   92.1980   12.5230 C.ar    1  UNL1        0.1027
     26 C          66.0876   92.3374   13.8683 C.ar    1  UNL1        0.0232
     27 C          65.5083   91.6296   15.0572 C.ar    1  UNL1        0.0309
     28 C          64.2804   90.7824   14.9008 C.ar    1  UNL1        0.1363
     29 F          63.7011   90.0746   16.0897 F       1  UNL1       -0.2045
     30 N          66.0182   92.9058   11.3342 N.ar    1  UNL1       -0.1478
     31 N          67.1104   92.3882   10.4458 N.ar    1  UNL1       -0.1447
     32 C          67.3742   93.4180    9.3875 C.ar    1  UNL1        0.1446
     33 C          66.4450   94.5721    9.6218 C.ar    1  UNL1        0.1446
     34 N          65.6070   94.2555   10.8249 N.ar    1  UNL1       -0.1447
@<TRIPOS>BOND
     1    20    21    1
     2    21     9    1
     3     9    10   ar
     4    10    11   ar
     5    11    12   ar
     6    12    15    1
     7    15    16   ar
     8    16    17   ar
     9    17    18   ar
    10    18    19   ar
    11    12    13   ar
    12    13     1    1
    13     1     2    2
    14     1     3   am
    15     3     4    1
    16     4     5    1
    17     5     6    1
    18     6     7    1
    19     7     8    1
    20     8    22    1
    21    22    23    1
    22    23    24   ar
    23    24    25   ar
    24    25    30    1
    25    30    31   ar
    26    31    32   ar
    27    32    33   ar
    28    33    34   ar
    29    25    26   ar
    30    26    27   ar
    31    27    28   ar
    32    28    29    1
    33    13    14   ar
    34    14     9   ar
    35    19    15   ar
    36     8     3    1
    37    28    23   ar
    38    34    30   ar
@<TRIPOS>MOLECULE
*****
 34 38 0 0 0
SMALL
GASTEIGER

@<TRIPOS>ATOM
      1 C          62.7894   87.3215   11.8143 C.2     1  UNL1        0.2507
      2 O          63.7113   87.8013   12.8960 O.2     1  UNL1       -0.2698
      3 N          61.7115   88.2246   11.2924 N.am    1  UNL1       -0.2723
      4 C          60.7896   87.7448   10.2107 C.3     1  UNL1        0.1257
      5 C          59.7116   88.6480    9.6888 C.3     1  UNL1        0.1637
      6 O          59.5555   90.0308   10.2485 O.3     1  UNL1       -0.3502
      7 C          60.4774   90.5106   11.3302 C.3     1  UNL1        0.1622
      8 C          61.5553   89.6075   11.8521 C.3     1  UNL1        0.1097
      9 C          63.0538   84.3372    9.2116 C.ar    1  UNL1        0.1390
     10 C          63.2579   83.1730   10.1351 C.ar    1  UNL1        0.0385
     11 C          63.3058   83.3915   11.6183 C.ar    1  UNL1        0.0242
     12 C          63.1496   84.7744   12.1781 C.ar    1  UNL1        0.1074
     13 C          62.9456   85.9386   11.2546 C.ar    1  UNL1        0.0759
     14 C          62.8977   85.7200    9.7714 C.ar    1  UNL1        0.0430
     15 N          63.1976   84.9930   13.6613 N.ar    1  UNL1       -0.1477
     16 N          64.3919   85.4461   14.4476 N.ar    1  UNL1       -0.1447
     17 C          63.9920   85.5300   15.8909 C.ar    1  UNL1        0.1446
     18 C          62.5506   85.1287   15.9966 C.ar    1  UNL1        0.1446
     19 N          62.0596   84.7968   14.6186 N.ar    1  UNL1       -0.1447
     20 C          62.0478   84.9062    6.8848 C.3     1  UNL1        0.2525
     21 O          63.0059   84.1186    7.7284 O.3     1  UNL1       -0.4714
     22 C          62.4772   90.0873   12.9338 C.3     1  UNL1        0.0510
     23 C          63.6739   90.9213   12.5841 C.ar    1  UNL1        0.0086
     24 C          64.6813   91.2675   13.6401 C.ar    1  UNL1        0.0189
     25 C          65.8780   92.1015   13.2904 C.ar    1  UNL1        0.1027
     26 C          66.0673   92.5893   11.8846 C.ar    1  UNL1        0.0232
     27 C          65.0599   92.2431   10.8286 C.ar    1  UNL1        0.0309
     28 C          63.8632   91.4091   11.1783 C.ar    1  UNL1        0.1363
     29 F          62.8558   91.0629   10.1222 F       1  UNL1       -0.2045
     30 N          66.8854   92.4477   14.3465 N.ar    1  UNL1       -0.1478
     31 N          67.5816   91.4763   15.2530 N.ar    1  UNL1       -0.1447
     32 C          68.5000   92.2543   16.1482 C.ar    1  UNL1        0.1446
     33 C          68.3713   93.7064   15.7950 C.ar    1  UNL1        0.1446
     34 N          67.3735   93.8259   14.6814 N.ar    1  UNL1       -0.1447
@<TRIPOS>BOND
     1    20    21    1
     2    21     9    1
     3     9    10   ar
     4    10    11   ar
     5    11    12   ar
     6    12    15    1
     7    15    16   ar
     8    16    17   ar
     9    17    18   ar
    10    18    19   ar
    11    12    13   ar
    12    13     1    1
    13     1     2    2
    14     1     3   am
    15     3     4    1
    16     4     5    1
    17     5     6    1
    18     6     7    1
    19     7     8    1
    20     8    22    1
    21    22    23    1
    22    23    24   ar
    23    24    25   ar
    24    25    30    1
    25    30    31   ar
    26    31    32   ar
    27    32    33   ar
    28    33    34   ar
    29    25    26   ar
    30    26    27   ar
    31    27    28   ar
    32    28    29    1
    33    13    14   ar
    34    14     9   ar
    35    19    15   ar
    36     8     3    1
    37    28    23   ar
    38    34    30   ar
@<TRIPOS>MOLECULE
*****
 34 38 0 0 0
SMALL
GASTEIGER

@<TRIPOS>ATOM
      1 C          62.9887   86.3013   12.5673 C.2     1  UNL1        0.2507
      2 O          63.4429   87.2062   13.6741 O.2     1  UNL1       -0.2698
      3 N          62.2735   86.8712   11.3784 N.am    1  UNL1       -0.2723
      4 C          61.8193   85.9663   10.2716 C.3     1  UNL1        0.1257
      5 C          61.1041   86.5363    9.0826 C.3     1  UNL1        0.1637
      6 O          60.8431   88.0111    9.0004 O.3     1  UNL1       -0.3502
      7 C          61.2973   88.9160   10.1071 C.3     1  UNL1        0.1622
      8 C          62.0125   88.3461   11.2961 C.3     1  UNL1        0.1097
      9 C          63.7222   82.5563   11.4777 C.ar    1  UNL1        0.1390
     10 C          63.7717   81.8768   12.8141 C.ar    1  UNL1        0.0385
     11 C          63.5601   82.6721   14.0682 C.ar    1  UNL1        0.0242
     12 C          63.2991   84.1469   13.9859 C.ar    1  UNL1        0.1074
     13 C          63.2497   84.8264   12.6496 C.ar    1  UNL1        0.0759
     14 C          63.4612   84.0311   11.3955 C.ar    1  UNL1        0.0430
     15 N          63.0876   84.9422   15.2400 N.ar    1  UNL1       -0.1477
     16 N          64.1506   85.6559   16.0214 N.ar    1  UNL1       -0.1447
     17 C          63.4959   86.3182   17.1972 C.ar    1  UNL1        0.1446
     18 C          62.0281   86.0139   17.1426 C.ar    1  UNL1        0.1446
     19 N          61.7758   85.1635   15.9330 N.ar    1  UNL1       -0.1447
     20 C          63.2029   80.4665   10.0243 C.3     1  UNL1        0.2525
     21 O          63.9338   81.7610   10.2237 O.3     1  UNL1       -0.4714
     22 C          62.4667   89.2510   12.4028 C.3     1  UNL1        0.0510
     23 C          63.4749   90.3266   12.1261 C.ar    1  UNL1        0.0086
     24 C          64.4881   90.6913   13.1703 C.ar    1  UNL1        0.0189
     25 C          65.4964   91.7670   12.8937 C.ar    1  UNL1        0.1027
     26 C          65.4914   92.4778   11.5728 C.ar    1  UNL1        0.0232
     27 C          64.4781   92.1130   10.5286 C.ar    1  UNL1        0.0309
     28 C          63.4699   91.0374   10.8053 C.ar    1  UNL1        0.1363
     29 F          62.4568   90.6726    9.7611 F       1  UNL1       -0.2045
     30 N          66.5095   92.1318   13.9378 N.ar    1  UNL1       -0.1478
     31 N          67.9917   92.2331   13.7308 N.ar    1  UNL1       -0.1447
     32 C          68.6166   92.6232   15.0374 C.ar    1  UNL1        0.1446
     33 C          67.5207   92.7630   16.0520 C.ar    1  UNL1        0.1446
     34 N          66.2184   92.4593   15.3724 N.ar    1  UNL1       -0.1447
@<TRIPOS>BOND
     1    20    21    1
     2    21     9    1
     3     9    10   ar
     4    10    11   ar
     5    11    12   ar
     6    12    15    1
     7    15    16   ar
     8    16    17   ar
     9    17    18   ar
    10    18    19   ar
    11    12    13   ar
    12    13     1    1
    13     1     2    2
    14     1     3   am
    15     3     4    1
    16     4     5    1
    17     5     6    1
    18     6     7    1
    19     7     8    1
    20     8    22    1
    21    22    23    1
    22    23    24   ar
    23    24    25   ar
    24    25    30    1
    25    30    31   ar
    26    31    32   ar
    27    32    33   ar
    28    33    34   ar
    29    25    26   ar
    30    26    27   ar
    31    27    28   ar
    32    28    29    1
    33    13    14   ar
    34    14     9   ar
    35    19    15   ar
    36     8     3    1
    37    28    23   ar
    38    34    30   ar
@<TRIPOS>MOLECULE
*****
 34 38 0 0 0
SMALL
GASTEIGER

@<TRIPOS>ATOM
      1 C          63.1849   87.2585   12.6580 C.2     1  UNL1        0.2507
      2 O          63.8276   87.5951   13.9708 O.2     1  UNL1       -0.2698
      3 N          62.5668   88.3426   11.8257 N.am    1  UNL1       -0.2723
      4 C          61.9241   88.0059   10.5128 C.3     1  UNL1        0.1257
      5 C          61.3060   89.0901    9.6805 C.3     1  UNL1        0.1637
      6 O          61.3306   90.5108   10.1611 O.3     1  UNL1       -0.3502
      7 C          61.9733   90.8474   11.4740 C.3     1  UNL1        0.1622
      8 C          62.5914   89.7633   12.3063 C.3     1  UNL1        0.1097
      9 C          63.1734   84.1219   10.2266 C.ar    1  UNL1        0.1390
     10 C          63.1112   82.9964   11.2162 C.ar    1  UNL1        0.0385
     11 C          63.0736   83.2916   12.6864 C.ar    1  UNL1        0.0242
     12 C          63.0982   84.7122   13.1670 C.ar    1  UNL1        0.1074
     13 C          63.1604   85.8377   12.1774 C.ar    1  UNL1        0.0759
     14 C          63.1979   85.5426   10.7072 C.ar    1  UNL1        0.0430
     15 N          63.0606   85.0074   14.6372 N.ar    1  UNL1       -0.1477
     16 N          61.8334   85.0387   15.4991 N.ar    1  UNL1       -0.1447
     17 C          62.2580   85.3738   16.8982 C.ar    1  UNL1        0.1446
     18 C          63.7476   85.5496   16.9010 C.ar    1  UNL1        0.1446
     19 N          64.2437   85.3231   15.5036 N.ar    1  UNL1       -0.1447
     20 C          62.8585   84.8977    7.7672 C.3     1  UNL1        0.2525
     21 O          63.2109   83.8267    8.7564 O.3     1  UNL1       -0.4714
     22 C          63.2341   90.1000   13.6191 C.3     1  UNL1        0.0510
     23 C          64.3965   91.0469   13.6642 C.ar    1  UNL1        0.0086
     24 C          65.0323   91.5150   12.3888 C.ar    1  UNL1        0.0189
     25 C          66.1948   92.4620   12.4338 C.ar    1  UNL1        0.1027
     26 C          66.7214   92.9408   13.7542 C.ar    1  UNL1        0.0232
     27 C          66.0856   92.4726   15.0296 C.ar    1  UNL1        0.0309
     28 C          64.9232   91.5257   14.9846 C.ar    1  UNL1        0.1363
     29 F          64.2874   91.0575   16.2599 F       1  UNL1       -0.2045
     30 N          66.8306   92.9301   11.1585 N.ar    1  UNL1       -0.1478
     31 N          68.0554   92.3471   10.5181 N.ar    1  UNL1       -0.1447
     32 C          68.3350   93.1201    9.2634 C.ar    1  UNL1        0.1446
     33 C          67.2830   94.1809    9.1283 C.ar    1  UNL1        0.1446
     34 N          66.3533   94.0635   10.2995 N.ar    1  UNL1       -0.1447
@<TRIPOS>BOND
     1    20    21    1
     2    21     9    1
     3     9    10   ar
     4    10    11   ar
     5    11    12   ar
     6    12    15    1
     7    15    16   ar
     8    16    17   ar
     9    17    18   ar
    10    18    19   ar
    11    12    13   ar
    12    13     1    1
    13     1     2    2
    14     1     3   am
    15     3     4    1
    16     4     5    1
    17     5     6    1
    18     6     7    1
    19     7     8    1
    20     8    22    1
    21    22    23    1
    22    23    24   ar
    23    24    25   ar
    24    25    30    1
    25    30    31   ar
    26    31    32   ar
    27    32    33   ar
    28    33    34   ar
    29    25    26   ar
    30    26    27   ar
    31    27    28   ar
    32    28    29    1
    33    13    14   ar
    34    14     9   ar
    35    19    15   ar
    36     8     3    1
    37    28    23   ar
    38    34    30   ar
@<TRIPOS>MOLECULE
*****
 34 38 0 0 0
SMALL
GASTEIGER

@<TRIPOS>ATOM
      1 C          62.3579   84.5961   12.1732 C.2     1  UNL1        0.2507
      2 O          61.7444   85.6189   13.0829 O.2     1  UNL1       -0.2698
      3 N          62.6264   84.9347   10.7368 N.am    1  UNL1       -0.2723
      4 C          63.2399   83.9119    9.8272 C.3     1  UNL1        0.1257
      5 C          63.5084   84.2506    8.3907 C.3     1  UNL1        0.1637
      6 O          63.1634   85.6121    7.8640 O.3     1  UNL1       -0.3502
      7 C          62.5498   86.6348    8.7737 C.3     1  UNL1        0.1622
      8 C          62.2813   86.2962   10.2101 C.3     1  UNL1        0.1097
      9 C          62.8858   80.6667   12.3502 C.ar    1  UNL1        0.1390
     10 C          63.3929   80.5118   13.7533 C.ar    1  UNL1        0.0385
     11 C          63.5550   81.7183   14.6298 C.ar    1  UNL1        0.0242
     12 C          63.2100   83.0797   14.1031 C.ar    1  UNL1        0.1074
     13 C          62.7029   83.2346   12.7000 C.ar    1  UNL1        0.0759
     14 C          62.5408   82.0281   11.8235 C.ar    1  UNL1        0.0430
     15 N          63.3722   84.2862   14.9795 N.ar    1  UNL1       -0.1477
     16 N          64.5045   85.2685   14.9268 N.ar    1  UNL1       -0.1447
     17 C          64.2626   86.3116   15.9772 C.ar    1  UNL1        0.1446
     18 C          62.9807   85.9740   16.6791 C.ar    1  UNL1        0.1446
     19 N          62.4304   84.7222   16.0625 N.ar    1  UNL1       -0.1447
     20 C          62.8684   79.5888    9.9864 C.3     1  UNL1        0.2525
     21 O          62.7237   79.4602   11.4738 O.3     1  UNL1       -0.4714
     22 C          61.6678   87.3190   11.1197 C.3     1  UNL1        0.0510
     23 C          62.2195   88.7132   11.1609 C.ar    1  UNL1        0.0086
     24 C          63.0130   89.1710   12.3486 C.ar    1  UNL1        0.0189
     25 C          63.5647   90.5653   12.3898 C.ar    1  UNL1        0.1027
     26 C          63.3228   91.5018   11.2432 C.ar    1  UNL1        0.0232
     27 C          62.5292   91.0439   10.0555 C.ar    1  UNL1        0.0309
     28 C          61.9775   89.6497   10.0144 C.ar    1  UNL1        0.1363
     29 F          61.1840   89.1919    8.8267 F       1  UNL1       -0.2045
     30 N          64.3583   91.0231   13.5774 N.ar    1  UNL1       -0.1478
     31 N          65.8326   91.2986   13.5997 N.ar    1  UNL1       -0.1447
     32 C          66.2024   91.7315   14.9874 C.ar    1  UNL1        0.1446
     33 C          64.9566   91.7237   15.8229 C.ar    1  UNL1        0.1446
     34 N          63.8169   91.2858   14.9515 N.ar    1  UNL1       -0.1447
@<TRIPOS>BOND
     1    20    21    1
     2    21     9    1
     3     9    10   ar
     4    10    11   ar
     5    11    12   ar
     6    12    15    1
     7    15    16   ar
     8    16    17   ar
     9    17    18   ar
    10    18    19   ar
    11    12    13   ar
    12    13     1    1
    13     1     2    2
    14     1     3   am
    15     3     4    1
    16     4     5    1
    17     5     6    1
    18     6     7    1
    19     7     8    1
    20     8    22    1
    21    22    23    1
    22    23    24   ar
    23    24    25   ar
    24    25    30    1
    25    30    31   ar
    26    31    32   ar
    27    32    33   ar
    28    33    34   ar
    29    25    26   ar
    30    26    27   ar
    31    27    28   ar
    32    28    29    1
    33    13    14   ar
    34    14     9   ar
    35    19    15   ar
    36     8     3    1
    37    28    23   ar
    38    34    30   ar
@<TRIPOS>MOLECULE
*****
 34 38 0 0 0
SMALL
GASTEIGER

@<TRIPOS>ATOM
      1 C          62.5796   88.7317   11.5777 C.2     1  UNL1        0.2507
      2 O          62.4663   90.2271   11.5498 O.2     1  UNL1       -0.2698
      3 N          63.2903   88.0544   12.7117 N.am    1  UNL1       -0.2723
      4 C          63.4036   86.5589   12.7396 C.3     1  UNL1        0.1257
      5 C          64.1144   85.8817   13.8737 C.3     1  UNL1        0.1637
      6 O          64.7118   86.6998   14.9799 O.3     1  UNL1       -0.3502
      7 C          64.5985   88.1953   14.9520 C.3     1  UNL1        0.1622
      8 C          63.8878   88.8726   13.8180 C.3     1  UNL1        0.1097
      9 C          62.2422   86.1354    8.5951 C.ar    1  UNL1        0.1390
     10 C          60.7873   86.2772    8.2591 C.ar    1  UNL1        0.0385
     11 C          59.9297   87.2370    9.0293 C.ar    1  UNL1        0.0242
     12 C          60.5271   88.0552   10.1355 C.ar    1  UNL1        0.1074
     13 C          61.9821   87.9135   10.4714 C.ar    1  UNL1        0.0759
     14 C          62.8396   86.9536    9.7012 C.ar    1  UNL1        0.0430
     15 N          59.6695   89.0151   10.9057 N.ar    1  UNL1       -0.1477
     16 N          58.8782   88.6960   12.1394 N.ar    1  UNL1       -0.1447
     17 C          58.1723   89.9463   12.5736 C.ar    1  UNL1        0.1446
     18 C          58.5274   91.0381   11.6083 C.ar    1  UNL1        0.1446
     19 N          59.4527   90.4626   10.5774 N.ar    1  UNL1       -0.1447
     20 C          62.5732   84.5367    6.5741 C.3     1  UNL1        0.2525
     21 O          63.0998   85.1756    7.8249 O.3     1  UNL1       -0.4714
     22 C          63.7745   90.3680   13.7901 C.3     1  UNL1        0.0510
     23 C          65.0131   91.2138   13.7703 C.ar    1  UNL1        0.0086
     24 C          65.6460   91.5864   12.4625 C.ar    1  UNL1        0.0189
     25 C          66.8848   92.4322   12.4427 C.ar    1  UNL1        0.1027
     26 C          67.4904   92.9053   13.7309 C.ar    1  UNL1        0.0232
     27 C          66.8574   92.5327   15.0388 C.ar    1  UNL1        0.0309
     28 C          65.6188   91.6869   15.0585 C.ar    1  UNL1        0.1363
     29 F          64.9859   91.3143   16.3663 F       1  UNL1       -0.2045
     30 N          67.5177   92.8048   11.1349 N.ar    1  UNL1       -0.1478
     31 N          67.3089   94.0891   10.3886 N.ar    1  UNL1       -0.1447
     32 C          68.1327   94.0366    9.1362 C.ar    1  UNL1        0.1446
     33 C          68.8507   92.7199    9.1084 C.ar    1  UNL1        0.1446
     34 N          68.4706   91.9586   10.3437 N.ar    1  UNL1       -0.1447
@<TRIPOS>BOND
     1    20    21    1
     2    21     9    1
     3     9    10   ar
     4    10    11   ar
     5    11    12   ar
     6    12    15    1
     7    15    16   ar
     8    16    17   ar
     9    17    18   ar
    10    18    19   ar
    11    12    13   ar
    12    13     1    1
    13     1     2    2
    14     1     3   am
    15     3     4    1
    16     4     5    1
    17     5     6    1
    18     6     7    1
    19     7     8    1
    20     8    22    1
    21    22    23    1
    22    23    24   ar
    23    24    25   ar
    24    25    30    1
    25    30    31   ar
    26    31    32   ar
    27    32    33   ar
    28    33    34   ar
    29    25    26   ar
    30    26    27   ar
    31    27    28   ar
    32    28    29    1
    33    13    14   ar
    34    14     9   ar
    35    19    15   ar
    36     8     3    1
    37    28    23   ar
    38    34    30   ar
@<TRIPOS>MOLECULE
*****
 34 38 0 0 0
SMALL
GASTEIGER

@<TRIPOS>ATOM
      1 C          63.2992   87.9708   13.1750 C.2     1  UNL1        0.2507
      2 O          63.4217   89.1357   12.2380 O.2     1  UNL1       -0.2698
      3 N          63.2902   88.1986   14.6576 N.am    1  UNL1       -0.2723
      4 C          63.1677   87.0338   15.5947 C.3     1  UNL1        0.1257
      5 C          63.1587   87.2616   17.0773 C.3     1  UNL1        0.1637
      6 O          63.2722   88.6543   17.6227 O.3     1  UNL1       -0.3502
      7 C          63.3947   89.8191   16.6857 C.3     1  UNL1        0.1622
      8 C          63.4037   89.5913   15.2031 C.3     1  UNL1        0.1097
      9 C          63.8435   84.0663   12.7185 C.ar    1  UNL1        0.1390
     10 C          62.9587   83.7928   11.5386 C.ar    1  UNL1        0.0385
     11 C          62.1873   84.9120   10.9041 C.ar    1  UNL1        0.0242
     12 C          62.3008   86.3046   11.4496 C.ar    1  UNL1        0.1074
     13 C          63.1857   86.5781   12.6295 C.ar    1  UNL1        0.0759
     14 C          63.9570   85.4589   13.2639 C.ar    1  UNL1        0.0430
     15 N          61.5295   87.4238   10.8152 N.ar    1  UNL1       -0.1477
     16 N          61.8188   88.0498    9.4831 N.ar    1  UNL1       -0.1447
     17 C          60.8015   89.1264    9.2461 C.ar    1  UNL1        0.1446
     18 C          59.8835   89.1657   10.4317 C.ar    1  UNL1        0.1446
     19 N          60.3334   88.1135   11.4014 N.ar    1  UNL1       -0.1447
     20 C          64.0178   81.5732   13.4284 C.3     1  UNL1        0.2525
     21 O          64.6149   82.9471   13.3529 O.3     1  UNL1       -0.4714
     22 C          63.5263   90.7562   14.2661 C.3     1  UNL1        0.0510
     23 C          64.8161   91.5170   14.1799 C.ar    1  UNL1        0.0086
     24 C          65.4592   91.7542   12.8457 C.ar    1  UNL1        0.0189
     25 C          66.7491   92.5150   12.7595 C.ar    1  UNL1        0.1027
     26 C          67.3958   93.0387   14.0075 C.ar    1  UNL1        0.0232
     27 C          66.7526   92.8015   15.3418 C.ar    1  UNL1        0.0309
     28 C          65.4628   92.0407   15.4279 C.ar    1  UNL1        0.1363
     29 F          64.8197   91.8035   16.7621 F       1  UNL1       -0.2045
     30 N          67.3922   92.7522   11.4253 N.ar    1  UNL1       -0.1478
     31 N          67.1241   93.9105   10.5108 N.ar    1  UNL1       -0.1447
     32 C          67.9826   93.7469    9.2917 C.ar    1  UNL1        0.1446
     33 C          68.7813   92.4874    9.4527 C.ar    1  UNL1        0.1446
     34 N          68.4164   91.8727   10.7714 N.ar    1  UNL1       -0.1447
@<TRIPOS>BOND
     1    20    21    1
     2    21     9    1
     3     9    10   ar
     4    10    11   ar
     5    11    12   ar
     6    12    15    1
     7    15    16   ar
     8    16    17   ar
     9    17    18   ar
    10    18    19   ar
    11    12    13   ar
    12    13     1    1
    13     1     2    2
    14     1     3   am
    15     3     4    1
    16     4     5    1
    17     5     6    1
    18     6     7    1
    19     7     8    1
    20     8    22    1
    21    22    23    1
    22    23    24   ar
    23    24    25   ar
    24    25    30    1
    25    30    31   ar
    26    31    32   ar
    27    32    33   ar
    28    33    34   ar
    29    25    26   ar
    30    26    27   ar
    31    27    28   ar
    32    28    29    1
    33    13    14   ar
    34    14     9   ar
    35    19    15   ar
    36     8     3    1
    37    28    23   ar
    38    34    30   ar
@<TRIPOS>MOLECULE
*****
 34 38 0 0 0
SMALL
GASTEIGER

@<TRIPOS>ATOM
      1 C          62.8076   88.9326   11.9139 C.2     1  UNL1        0.2507
      2 O          62.9155   87.7017   12.7643 O.2     1  UNL1       -0.2698
      3 N          61.8263   88.9774   10.7803 N.am    1  UNL1       -0.2723
      4 C          61.7184   90.2083    9.9299 C.3     1  UNL1        0.1257
      5 C          60.7370   90.2531    8.7963 C.3     1  UNL1        0.1637
      6 O          59.8636   89.0670    8.5132 O.3     1  UNL1       -0.3502
      7 C          59.9714   87.8361    9.3636 C.3     1  UNL1        0.1622
      8 C          60.9527   87.7913   10.4972 C.3     1  UNL1        0.1097
      9 C          64.9198   92.2487   11.3730 C.ar    1  UNL1        0.1390
     10 C          65.4280   92.4909   12.7633 C.ar    1  UNL1        0.0385
     11 C          65.0628   91.5471   13.8705 C.ar    1  UNL1        0.0242
     12 C          64.1894   90.3610   13.5873 C.ar    1  UNL1        0.1074
     13 C          63.6811   90.1187   12.1971 C.ar    1  UNL1        0.0759
     14 C          64.0463   91.0626   11.0899 C.ar    1  UNL1        0.0430
     15 N          63.8242   89.4172   14.6945 N.ar    1  UNL1       -0.1477
     16 N          64.3529   88.0254   14.8770 N.ar    1  UNL1       -0.1447
     17 C          63.7217   87.4474   16.1088 C.ar    1  UNL1        0.1446
     18 C          62.8027   88.4821   16.6877 C.ar    1  UNL1        0.1446
     19 N          62.8661   89.6994   15.8136 N.ar    1  UNL1       -0.1447
     20 C          66.7274   93.4698    9.9619 C.3     1  UNL1        0.2525
     21 O          65.2850   93.1925   10.2658 O.3     1  UNL1       -0.4714
     22 C          61.0606   86.5604   11.3476 C.3     1  UNL1        0.0510
     23 C          61.9675   85.4397   10.9334 C.ar    1  UNL1        0.0086
     24 C          62.1135   84.2305   11.8088 C.ar    1  UNL1        0.0189
     25 C          63.0205   83.1098   11.3946 C.ar    1  UNL1        0.1027
     26 C          63.7814   83.1983   10.1050 C.ar    1  UNL1        0.0232
     27 C          63.6354   84.4077    9.2296 C.ar    1  UNL1        0.0309
     28 C          62.7285   85.5283    9.6438 C.ar    1  UNL1        0.1363
     29 F          62.5825   86.7375    8.7684 F       1  UNL1       -0.2045
     30 N          63.1664   81.9005   12.2700 N.ar    1  UNL1       -0.1478
     31 N          64.0147   81.8020   13.5032 N.ar    1  UNL1       -0.1447
     32 C          63.8623   80.4181   14.0613 C.ar    1  UNL1        0.1446
     33 C          62.9198   79.6612   13.1730 C.ar    1  UNL1        0.1446
     34 N          62.4898   80.5774   12.0660 N.ar    1  UNL1       -0.1447
@<TRIPOS>BOND
     1    20    21    1
     2    21     9    1
     3     9    10   ar
     4    10    11   ar
     5    11    12   ar
     6    12    15    1
     7    15    16   ar
     8    16    17   ar
     9    17    18   ar
    10    18    19   ar
    11    12    13   ar
    12    13     1    1
    13     1     2    2
    14     1     3   am
    15     3     4    1
    16     4     5    1
    17     5     6    1
    18     6     7    1
    19     7     8    1
    20     8    22    1
    21    22    23    1
    22    23    24   ar
    23    24    25   ar
    24    25    30    1
    25    30    31   ar
    26    31    32   ar
    27    32    33   ar
    28    33    34   ar
    29    25    26   ar
    30    26    27   ar
    31    27    28   ar
    32    28    29    1
    33    13    14   ar
    34    14     9   ar
    35    19    15   ar
    36     8     3    1
    37    28    23   ar
    38    34    30   ar
@<TRIPOS>MOLECULE
*****
 34 38 0 0 0
SMALL
GASTEIGER

@<TRIPOS>ATOM
      1 C          62.3935   87.8707   11.1142 C.2     1  UNL1        0.2507
      2 O          63.5085   88.5078   10.3389 O.2     1  UNL1       -0.2698
      3 N          61.1525   88.6541   11.4243 N.am    1  UNL1       -0.2723
      4 C          60.0376   88.0170   12.1996 C.3     1  UNL1        0.1257
      5 C          58.7965   88.8004   12.5097 C.3     1  UNL1        0.1637
      6 O          58.6705   90.2209   12.0445 O.3     1  UNL1       -0.3502
      7 C          59.7854   90.8579   11.2692 C.3     1  UNL1        0.1622
      8 C          61.0264   90.0746   10.9591 C.3     1  UNL1        0.1097
      9 C          63.2634   84.7293   13.3781 C.ar    1  UNL1        0.1390
     10 C          62.7719   83.6094   12.5098 C.ar    1  UNL1        0.0385
     11 C          62.1543   83.9098   11.1762 C.ar    1  UNL1        0.0242
     12 C          62.0282   85.3302   10.7110 C.ar    1  UNL1        0.1074
     13 C          62.5196   86.4502   11.5794 C.ar    1  UNL1        0.0759
     14 C          63.1373   86.1498   12.9129 C.ar    1  UNL1        0.0430
     15 N          61.4105   85.6307    9.3775 N.ar    1  UNL1       -0.1477
     16 N          61.9775   85.2591    8.0394 N.ar    1  UNL1       -0.1447
     17 C          61.0349   85.7542    6.9829 C.ar    1  UNL1        0.1446
     18 C          59.8853   86.4318    7.6679 C.ar    1  UNL1        0.1446
     19 N          60.1175   86.3554    9.1479 N.ar    1  UNL1       -0.1447
     20 C          63.8978   85.4778   15.7838 C.3     1  UNL1        0.2525
     21 O          63.8810   84.4289   14.7116 O.3     1  UNL1       -0.4714
     22 C          62.1413   90.7117   10.1838 C.3     1  UNL1        0.0510
     23 C          63.2795   91.3672   10.9082 C.ar    1  UNL1        0.0086
     24 C          64.2034   92.2919   10.1726 C.ar    1  UNL1        0.0189
     25 C          65.3417   92.9475   10.8970 C.ar    1  UNL1        0.1027
     26 C          65.5560   92.6783   12.3570 C.ar    1  UNL1        0.0232
     27 C          64.6320   91.7535   13.0926 C.ar    1  UNL1        0.0309
     28 C          63.4938   91.0979   12.3682 C.ar    1  UNL1        0.1363
     29 F          62.5699   90.1732   13.1038 F       1  UNL1       -0.2045
     30 N          66.2656   93.8723   10.1614 N.ar    1  UNL1       -0.1478
     31 N          66.2015   95.3709   10.1671 N.ar    1  UNL1       -0.1447
     32 C          67.3121   95.8857    9.3002 C.ar    1  UNL1        0.1446
     33 C          68.0626   94.7051    8.7586 C.ar    1  UNL1        0.1446
     34 N          67.4158   93.4608    9.2909 N.ar    1  UNL1       -0.1447
@<TRIPOS>BOND
     1    20    21    1
     2    21     9    1
     3     9    10   ar
     4    10    11   ar
     5    11    12   ar
     6    12    15    1
     7    15    16   ar
     8    16    17   ar
     9    17    18   ar
    10    18    19   ar
    11    12    13   ar
    12    13     1    1
    13     1     2    2
    14     1     3   am
    15     3     4    1
    16     4     5    1
    17     5     6    1
    18     6     7    1
    19     7     8    1
    20     8    22    1
    21    22    23    1
    22    23    24   ar
    23    24    25   ar
    24    25    30    1
    25    30    31   ar
    26    31    32   ar
    27    32    33   ar
    28    33    34   ar
    29    25    26   ar
    30    26    27   ar
    31    27    28   ar
    32    28    29    1
    33    13    14   ar
    34    14     9   ar
    35    19    15   ar
    36     8     3    1
    37    28    23   ar
    38    34    30   ar
