@<TRIPOS>MOLECULE
*****
 46 52 0 0 0
SMALL
GASTEIGER

@<TRIPOS>ATOM
      1 C          62.1843   87.0984   10.5925 C.2     1  UNL1        0.0770
      2 N          62.7228   86.3086   11.7484 N.2     1  UNL1       -0.2460
      3 C          63.3174   87.2727   12.7317 C.2     1  UNL1        0.0773
      4 C          63.9925   87.0678   14.0554 C.2     1  UNL1        0.0182
      5 C          64.4966   88.2486   14.8309 C.2     1  UNL1       -0.0062
      6 C          64.3256   89.6343   14.2828 C.2     1  UNL1       -0.0322
      7 C          63.6505   89.8392   12.9590 C.3     1  UNL1        0.0500
      8 C          63.1464   88.6584   12.1835 C.2     1  UNL1       -0.0029
      9 C          62.4461   88.5507   10.8614 C.2     1  UNL1       -0.0057
     10 C          57.8993   86.4747    7.7202 C.3     1  UNL1        0.0310
     11 C          59.3610   86.2231    7.9443 C.ar    1  UNL1       -0.0221
     12 C          60.1419   85.4080    6.9564 C.ar    1  UNL1       -0.0085
     13 C          61.6035   85.1565    7.1805 C.ar    1  UNL1       -0.0221
     14 C          62.3844   84.3414    6.1926 C.3     1  UNL1        0.0310
     15 C          62.2843   85.7200    8.3925 C.ar    1  UNL1       -0.0028
     16 C          61.5035   86.5350    9.3804 C.ar    1  UNL1        0.0167
     17 C          60.0418   86.7865    9.1563 C.ar    1  UNL1       -0.0028
     18 C          64.8297   90.8152   15.0584 C.3     1  UNL1        0.0845
     19 C          65.5383   91.3162   13.8349 C.3     1  UNL1        0.0132
     20 C          64.1211   90.3142   16.2818 C.3     1  UNL1        0.0132
     21 C          65.3338   91.9960   15.8339 C.2     1  UNL1        0.2281
     22 O          64.4121   92.7353   16.7581 O.2     1  UNL1       -0.2746
     23 N          66.7596   92.4376   15.6853 N.am    1  UNL1       -0.2826
     24 C          67.7928   91.8004   14.8041 C.3     1  UNL1        0.0754
     25 C          69.0743   92.5629   14.9660 C.3     1  UNL1        0.0215
     26 C          68.8332   93.6715   15.9473 C.3     1  UNL1        0.0215
     27 C          67.4027   93.5940   16.3919 C.3     1  UNL1        0.0754
     28 C          66.1211   92.8315   16.2299 C.3     1  UNL1        0.0215
     29 C          66.3622   91.7229   15.2486 C.3     1  UNL1        0.0215
     30 C          62.0731   89.6945    9.9655 C.3     1  UNL1        0.0393
     31 C          63.0457   90.8125    9.7322 C.3     1  UNL1        0.0062
     32 C          60.7277   89.7205    9.3030 C.3     1  UNL1        0.0730
     33 N          60.6031   90.1627    7.8751 N.3     1  UNL1       -0.2969
     34 H          61.5238   90.0503    7.4507 H       1  UNL1        0.1233
     35 C          59.6211   89.4879    6.9640 C.3     1  UNL1        0.0730
     36 C          58.8349   90.2984    5.9765 C.3     1  UNL1        0.0395
     37 C          59.5475   91.1028    4.9300 C.2     1  UNL1       -0.0344
     38 C          58.7913   92.1074    4.1122 C.2     1  UNL1       -0.0041
     39 C          59.5040   92.9119    3.0658 C.2     1  UNL1        0.0495
     40 C          60.9729   92.7116    2.8371 C.2     1  UNL1        0.2317
     41 N          61.9370   93.3538    1.8843 N.2     1  UNL1       -0.0350
     42 C          63.2891   92.7461    2.1132 C.2     1  UNL1        0.3518
     43 C          64.5486   93.0949    1.3770 C.3     1  UNL1        0.1367
     44 N          63.1606   91.7283    3.2075 N.2     1  UNL1       -0.0389
     45 C          61.7290   91.7070    3.6549 C.2     1  UNL1        0.2171
     46 C          61.0164   90.9026    4.7014 C.3     1  UNL1        0.0998
@<TRIPOS>BOND
     1    10    11    1
     2    11    12   ar
     3    12    13   ar
     4    13    14    1
     5    13    15   ar
     6    15    16   ar
     7    16     1    1
     8     1     2    2
     9     2     3    1
    10     3     4    2
    11     4     5    1
    12     5     6    2
    13     6    18    1
    14    18    19    1
    15    18    20    1
    16    18    21    1
    17    21    22    2
    18    21    23   am
    19    23    24    1
    20    24    25    1
    21    25    26    1
    22    26    27    1
    23    27    28    1
    24    28    29    1
    25     6     7    1
    26     7     8    1
    27     8     9    2
    28     9    30    1
    29    30    31    1
    30    30    32    1
    31    32    33    1
    32    33    35    1
    33    35    36    1
    34    36    37    1
    35    37    38    2
    36    38    39    1
    37    39    40    2
    38    40    41    1
    39    41    42    2
    40    42    43    1
    41    42    44    1
    42    44    45    2
    43    45    46    1
    44    16    17   ar
    45    17    11   ar
    46     9     1    1
    47    46    37    1
    48     8     3    1
    49    45    40    1
    50    27    23    1
    51    29    24    1
    52    33    34    1
@<TRIPOS>MOLECULE
*****
 46 52 0 0 0
SMALL
GASTEIGER

@<TRIPOS>ATOM
      1 C          64.5083   91.2135   13.1299 C.2     1  UNL1        0.0770
      2 N          64.1795   92.0028   11.8974 N.2     1  UNL1       -0.2460
      3 C          63.3340   91.1412   11.0070 C.2     1  UNL1        0.0773
      4 C          62.7155   91.3895    9.6632 C.2     1  UNL1        0.0182
      5 C          61.9033   90.3159    9.0016 C.2     1  UNL1       -0.0062
      6 C          61.7095   88.9942    9.6838 C.2     1  UNL1       -0.0322
      7 C          62.3280   88.7459   11.0276 C.3     1  UNL1        0.0500
      8 C          63.1402   89.8194   11.6892 C.2     1  UNL1       -0.0029
      9 C          63.8659   89.8642   13.0012 C.2     1  UNL1       -0.0057
     10 C          69.1386   92.3976   15.1689 C.3     1  UNL1        0.0310
     11 C          67.6494   92.2821   15.3073 C.ar    1  UNL1       -0.0221
     12 C          66.9864   92.6430   16.6034 C.ar    1  UNL1       -0.0085
     13 C          65.4973   92.5274   16.7417 C.ar    1  UNL1       -0.0221
     14 C          64.8342   92.8883   18.0379 C.3     1  UNL1        0.0310
     15 C          64.6712   92.0509   15.5839 C.ar    1  UNL1       -0.0028
     16 C          65.3343   91.6900   14.2877 C.ar    1  UNL1        0.0167
     17 C          66.8234   91.8056   14.1494 C.ar    1  UNL1       -0.0028
     18 C          60.8972   87.9206    9.0221 C.3     1  UNL1        0.0845
     19 C          61.5476   86.8898    9.8963 C.3     1  UNL1        0.0132
     20 C          60.2468   88.9515    8.1479 C.3     1  UNL1        0.0132
     21 C          60.0850   86.8471    8.3605 C.2     1  UNL1        0.2281
     22 O          58.5964   86.8132    8.5424 O.2     1  UNL1       -0.2746
     23 N          60.7612   85.8074    7.5169 N.am    1  UNL1       -0.2826
     24 C          62.2334   85.7135    7.2450 C.3     1  UNL1        0.0754
     25 C          62.4661   84.5271    6.3571 C.3     1  UNL1        0.0215
     26 C          61.1377   83.8878    6.0802 C.3     1  UNL1        0.0215
     27 C          60.0841   84.6790    6.7970 C.3     1  UNL1        0.0754
     28 C          59.8514   85.8654    7.6849 C.3     1  UNL1        0.0215
     29 C          61.1797   86.5048    7.9618 C.3     1  UNL1        0.0215
     30 C          63.9369   88.7543   14.0077 C.3     1  UNL1        0.0393
     31 C          64.0467   87.3306   13.5480 C.3     1  UNL1        0.0062
     32 C          63.8980   89.0679   15.4740 C.3     1  UNL1        0.0730
     33 N          62.7640   88.5669   16.3184 N.3     1  UNL1       -0.2969
     34 H          62.0682   88.1828   15.6791 H       1  UNL1        0.1233
     35 C          63.0133   87.5224   17.3657 C.3     1  UNL1        0.0730
     36 C          62.3661   86.1742   17.2493 C.3     1  UNL1        0.0395
     37 C          62.8897   85.1737   16.2620 C.2     1  UNL1       -0.0344
     38 C          64.3276   85.2206   15.8374 C.2     1  UNL1       -0.0041
     39 C          64.8512   84.2201   14.8501 C.2     1  UNL1        0.0495
     40 C          63.9369   83.1725   14.2873 C.2     1  UNL1        0.2317
     41 N          64.1667   82.0625   13.3050 N.2     1  UNL1       -0.0350
     42 C          62.8708   81.3294   13.1225 C.2     1  UNL1        0.3518
     43 C          62.6453   80.1469   12.2276 C.3     1  UNL1        0.1367
     44 N          61.8402   81.9864   13.9920 N.2     1  UNL1       -0.0389
     45 C          62.4990   83.1255   14.7119 C.2     1  UNL1        0.2171
     46 C          61.9754   84.1261   15.6992 C.3     1  UNL1        0.0998
@<TRIPOS>BOND
     1    10    11    1
     2    11    12   ar
     3    12    13   ar
     4    13    14    1
     5    13    15   ar
     6    15    16   ar
     7    16     1    1
     8     1     2    2
     9     2     3    1
    10     3     4    2
    11     4     5    1
    12     5     6    2
    13     6    18    1
    14    18    19    1
    15    18    20    1
    16    18    21    1
    17    21    22    2
    18    21    23   am
    19    23    24    1
    20    24    25    1
    21    25    26    1
    22    26    27    1
    23    27    28    1
    24    28    29    1
    25     6     7    1
    26     7     8    1
    27     8     9    2
    28     9    30    1
    29    30    31    1
    30    30    32    1
    31    32    33    1
    32    33    35    1
    33    35    36    1
    34    36    37    1
    35    37    38    2
    36    38    39    1
    37    39    40    2
    38    40    41    1
    39    41    42    2
    40    42    43    1
    41    42    44    1
    42    44    45    2
    43    45    46    1
    44    16    17   ar
    45    17    11   ar
    46     9     1    1
    47    46    37    1
    48     8     3    1
    49    45    40    1
    50    27    23    1
    51    29    24    1
    52    33    34    1
@<TRIPOS>MOLECULE
*****
 46 52 0 0 0
SMALL
GASTEIGER

@<TRIPOS>ATOM
      1 C          64.5369   91.1559   13.2944 C.2     1  UNL1        0.0770
      2 N          64.2758   91.9274   12.0348 N.2     1  UNL1       -0.2460
      3 C          63.4263   91.0767   11.1378 C.2     1  UNL1        0.0773
      4 C          62.8591   91.3157    9.7699 C.2     1  UNL1        0.0182
      5 C          62.0279   90.2575    9.1073 C.2     1  UNL1       -0.0062
      6 C          61.7640   88.9601    9.8125 C.2     1  UNL1       -0.0322
      7 C          62.3312   88.7211   11.1803 C.3     1  UNL1        0.0500
      8 C          63.1624   89.7794   11.8430 C.2     1  UNL1       -0.0029
      9 C          63.8487   89.8284   13.1758 C.2     1  UNL1       -0.0057
     10 C          64.7776   92.8877   18.1876 C.3     1  UNL1        0.0310
     11 C          65.4647   92.4948   16.9133 C.ar    1  UNL1       -0.0221
     12 C          66.9591   92.5749   16.8115 C.ar    1  UNL1       -0.0085
     13 C          67.6460   92.1820   15.5372 C.ar    1  UNL1       -0.0221
     14 C          69.1405   92.2621   15.4353 C.3     1  UNL1        0.0310
     15 C          66.8386   91.7090   14.3649 C.ar    1  UNL1       -0.0028
     16 C          65.3443   91.6289   14.4668 C.ar    1  UNL1        0.0167
     17 C          64.6573   92.0218   15.7410 C.ar    1  UNL1       -0.0028
     18 C          60.9328   87.9018    9.1497 C.3     1  UNL1        0.0845
     19 C          61.5182   86.8684   10.0658 C.3     1  UNL1        0.0132
     20 C          60.3473   88.9353    8.2337 C.3     1  UNL1        0.0132
     21 C          60.1016   86.8436    8.4871 C.2     1  UNL1        0.2281
     22 O          58.6189   86.8046    8.7113 O.2     1  UNL1       -0.2746
     23 N          60.7530   85.8242    7.6002 N.am    1  UNL1       -0.2826
     24 C          62.2167   85.7375    7.2837 C.3     1  UNL1        0.0754
     25 C          62.4235   84.5723    6.3620 C.3     1  UNL1        0.0215
     26 C          61.0876   83.9388    6.1088 C.3     1  UNL1        0.0215
     27 C          60.0552   84.7125    6.8741 C.3     1  UNL1        0.0754
     28 C          59.8484   85.8778    7.7958 C.3     1  UNL1        0.0215
     29 C          61.1843   86.5113    8.0489 C.3     1  UNL1        0.0215
     30 C          63.8472   88.7407   14.2088 C.3     1  UNL1        0.0393
     31 C          63.4703   89.0534   15.6267 C.3     1  UNL1        0.0062
     32 C          64.2225   87.3404   13.8240 C.3     1  UNL1        0.0730
     33 N          64.8441   86.4252   14.8370 N.3     1  UNL1       -0.2969
     34 H          65.1937   87.0155   15.5918 H       1  UNL1        0.1233
     35 C          64.0223   85.3457   15.4767 C.3     1  UNL1        0.0730
     36 C          62.7849   84.8416   14.7949 C.3     1  UNL1        0.0395
     37 C          62.9005   83.9340   13.6063 C.2     1  UNL1       -0.0344
     38 C          63.2471   84.5001   12.2612 C.2     1  UNL1       -0.0041
     39 C          63.3627   83.5925   11.0725 C.2     1  UNL1        0.0495
     40 C          63.1315   82.1187   11.2289 C.2     1  UNL1        0.2317
     41 N          63.1752   80.9861   10.2465 N.2     1  UNL1       -0.0350
     42 C          62.8555   79.7199   10.9844 C.2     1  UNL1        0.3518
     43 C          62.7887   78.3450   10.3884 C.3     1  UNL1        0.1367
     44 N          62.6142   80.0700   12.4228 N.2     1  UNL1       -0.0389
     45 C          62.7849   81.5526   12.5740 C.2     1  UNL1        0.2171
     46 C          62.6693   82.4602   13.7626 C.3     1  UNL1        0.0998
@<TRIPOS>BOND
     1    10    11    1
     2    11    12   ar
     3    12    13   ar
     4    13    14    1
     5    13    15   ar
     6    15    16   ar
     7    16     1    1
     8     1     2    2
     9     2     3    1
    10     3     4    2
    11     4     5    1
    12     5     6    2
    13     6    18    1
    14    18    19    1
    15    18    20    1
    16    18    21    1
    17    21    22    2
    18    21    23   am
    19    23    24    1
    20    24    25    1
    21    25    26    1
    22    26    27    1
    23    27    28    1
    24    28    29    1
    25     6     7    1
    26     7     8    1
    27     8     9    2
    28     9    30    1
    29    30    31    1
    30    30    32    1
    31    32    33    1
    32    33    35    1
    33    35    36    1
    34    36    37    1
    35    37    38    2
    36    38    39    1
    37    39    40    2
    38    40    41    1
    39    41    42    2
    40    42    43    1
    41    42    44    1
    42    44    45    2
    43    45    46    1
    44    16    17   ar
    45    17    11   ar
    46     9     1    1
    47    46    37    1
    48     8     3    1
    49    45    40    1
    50    27    23    1
    51    29    24    1
    52    33    34    1
@<TRIPOS>MOLECULE
*****
 46 52 0 0 0
SMALL
GASTEIGER

@<TRIPOS>ATOM
      1 C          60.0561   88.3490    7.0567 C.2     1  UNL1        0.0770
      2 N          60.3319   86.9785    6.5129 N.2     1  UNL1       -0.2460
      3 C          61.0018   86.1784    7.5904 C.2     1  UNL1        0.0773
      4 C          61.5038   84.7654    7.6263 C.2     1  UNL1        0.0182
      5 C          62.1439   84.2283    8.8719 C.2     1  UNL1       -0.0062
      6 C          62.2821   85.1043   10.0817 C.2     1  UNL1       -0.0322
      7 C          61.7801   86.5173   10.0459 C.3     1  UNL1        0.0500
      8 C          61.1399   87.0544    8.8002 C.2     1  UNL1       -0.0029
      9 C          60.5554   88.3958    8.4703 C.2     1  UNL1       -0.0057
     10 C          60.4048   92.5722    4.0494 C.3     1  UNL1        0.0310
     11 C          59.5709   91.5865    4.8132 C.ar    1  UNL1       -0.0221
     12 C          58.0777   91.7267    4.8370 C.ar    1  UNL1       -0.0085
     13 C          57.2440   90.7411    5.6007 C.ar    1  UNL1       -0.0221
     14 C          55.7507   90.8813    5.6245 C.3     1  UNL1        0.0310
     15 C          57.9034   89.6152    6.3406 C.ar    1  UNL1       -0.0028
     16 C          59.3966   89.4749    6.3168 C.ar    1  UNL1        0.0167
     17 C          60.2304   90.4606    5.5531 C.ar    1  UNL1       -0.0028
     18 C          62.9223   84.5672   11.3274 C.3     1  UNL1        0.0845
     19 C          63.7834   83.6638   10.4953 C.3     1  UNL1        0.0132
     20 C          62.0612   85.4705   12.1595 C.3     1  UNL1        0.0132
     21 C          63.5625   84.0300   12.5730 C.2     1  UNL1        0.2281
     22 O          64.4919   84.8952   13.3716 O.2     1  UNL1       -0.2746
     23 N          63.2733   82.6277   13.0202 N.am    1  UNL1       -0.2826
     24 C          62.3701   81.6502   12.3282 C.3     1  UNL1        0.0754
     25 C          62.3751   80.3751   13.1181 C.3     1  UNL1        0.0215
     26 C          63.2813   80.5645   14.2983 C.3     1  UNL1        0.0215
     27 C          63.8364   81.9567   14.2378 C.3     1  UNL1        0.0754
     28 C          63.8314   83.2318   13.4478 C.3     1  UNL1        0.0215
     29 C          62.9252   83.0424   12.2676 C.3     1  UNL1        0.0215
     30 C          60.4831   89.5768    9.3923 C.3     1  UNL1        0.0393
     31 C          61.3273   90.7881    9.1273 C.3     1  UNL1        0.0062
     32 C          59.5665   89.5467   10.5792 C.3     1  UNL1        0.0730
     33 N          60.0751   89.0707   11.9077 N.3     1  UNL1       -0.2969
     34 H          60.3835   88.1073   11.7770 H       1  UNL1        0.1233
     35 C          61.1995   89.7972   12.5844 C.3     1  UNL1        0.0730
     36 C          62.6214   89.4627   12.2433 C.3     1  UNL1        0.0395
     37 C          63.7054   90.4738   12.4725 C.2     1  UNL1       -0.0344
     38 C          64.0775   91.4346   11.3825 C.2     1  UNL1       -0.0041
     39 C          65.1616   92.4457   11.6117 C.2     1  UNL1        0.0495
     40 C          65.8736   92.4960   12.9310 C.2     1  UNL1        0.2317
     41 N          66.9747   93.3757   13.4444 N.2     1  UNL1       -0.0350
     42 C          67.2832   92.9585   14.8518 C.2     1  UNL1        0.3518
     43 C          68.3201   93.5712   15.7458 C.3     1  UNL1        0.1367
     44 N          66.3727   91.8209   15.2082 N.2     1  UNL1       -0.0389
     45 C          65.5015   91.5351   14.0210 C.2     1  UNL1        0.2171
     46 C          64.4175   90.5240   13.7918 C.3     1  UNL1        0.0998
@<TRIPOS>BOND
     1    10    11    1
     2    11    12   ar
     3    12    13   ar
     4    13    14    1
     5    13    15   ar
     6    15    16   ar
     7    16     1    1
     8     1     2    2
     9     2     3    1
    10     3     4    2
    11     4     5    1
    12     5     6    2
    13     6    18    1
    14    18    19    1
    15    18    20    1
    16    18    21    1
    17    21    22    2
    18    21    23   am
    19    23    24    1
    20    24    25    1
    21    25    26    1
    22    26    27    1
    23    27    28    1
    24    28    29    1
    25     6     7    1
    26     7     8    1
    27     8     9    2
    28     9    30    1
    29    30    31    1
    30    30    32    1
    31    32    33    1
    32    33    35    1
    33    35    36    1
    34    36    37    1
    35    37    38    2
    36    38    39    1
    37    39    40    2
    38    40    41    1
    39    41    42    2
    40    42    43    1
    41    42    44    1
    42    44    45    2
    43    45    46    1
    44    16    17   ar
    45    17    11   ar
    46     9     1    1
    47    46    37    1
    48     8     3    1
    49    45    40    1
    50    27    23    1
    51    29    24    1
    52    33    34    1
@<TRIPOS>MOLECULE
*****
 46 52 0 0 0
SMALL
GASTEIGER

@<TRIPOS>ATOM
      1 C          61.7297   86.5196   10.7306 C.2     1  UNL1        0.0770
      2 N          60.9730   85.6954    9.7316 N.2     1  UNL1       -0.2460
      3 C          60.4073   86.6238    8.6981 C.2     1  UNL1        0.0773
      4 C          59.5741   86.3767    7.4756 C.2     1  UNL1        0.0182
      5 C          59.1479   87.5277    6.6133 C.2     1  UNL1       -0.0062
      6 C          59.5549   88.9258    6.9736 C.2     1  UNL1       -0.0322
      7 C          60.3881   89.1728    8.1962 C.3     1  UNL1        0.0500
      8 C          60.8143   88.0218    9.0584 C.2     1  UNL1       -0.0029
      9 C          61.6316   87.9574   10.3146 C.2     1  UNL1       -0.0057
     10 C          64.7586   87.3524   14.8698 C.3     1  UNL1        0.0310
     11 C          63.9712   86.4141   14.0039 C.ar    1  UNL1       -0.0221
     12 C          63.9110   84.9539   14.3418 C.ar    1  UNL1       -0.0085
     13 C          63.1237   84.0156   13.4760 C.ar    1  UNL1       -0.0221
     14 C          63.0634   82.5554   13.8138 C.3     1  UNL1        0.0310
     15 C          62.3966   84.5376   12.2722 C.ar    1  UNL1       -0.0028
     16 C          62.4568   85.9977   11.9344 C.ar    1  UNL1        0.0167
     17 C          63.2441   86.9360   12.8002 C.ar    1  UNL1       -0.0028
     18 C          59.1287   90.0768    6.1113 C.3     1  UNL1        0.0845
     19 C          57.6929   89.6849    6.2979 C.3     1  UNL1        0.0132
     20 C          60.5645   90.4687    5.9247 C.3     1  UNL1        0.0132
     21 C          58.7025   91.2277    5.2490 C.2     1  UNL1        0.2281
     22 O          57.3042   91.7616    5.3481 O.2     1  UNL1       -0.2746
     23 N          59.6745   91.8449    4.2876 N.am    1  UNL1       -0.2826
     24 C          61.0980   91.4207    4.0789 C.3     1  UNL1        0.0754
     25 C          61.6970   92.3082    3.0283 C.3     1  UNL1        0.0215
     26 C          60.6436   93.2809    2.5877 C.3     1  UNL1        0.0215
     27 C          59.3936   92.9945    3.3660 C.3     1  UNL1        0.0754
     28 C          58.7947   92.1070    4.4165 C.3     1  UNL1        0.0215
     29 C          59.8481   91.1343    4.8571 C.3     1  UNL1        0.0215
     30 C          62.2433   89.1258   11.0292 C.3     1  UNL1        0.0393
     31 C          63.3428   89.9114   10.3779 C.3     1  UNL1        0.0062
     32 C          61.7558   89.5086   12.3951 C.3     1  UNL1        0.0730
     33 N          62.4723   90.5692   13.1773 N.3     1  UNL1       -0.2969
     34 H          61.7670   91.2446   13.4721 H       1  UNL1        0.1233
     35 C          63.2551   90.1980   14.4018 C.3     1  UNL1        0.0730
     36 C          64.3992   91.0584   14.8499 C.3     1  UNL1        0.0395
     37 C          65.4198   91.5267   13.8554 C.2     1  UNL1       -0.0344
     38 C          66.8811   91.3323   14.1322 C.2     1  UNL1       -0.0041
     39 C          67.9017   91.8007   13.1377 C.2     1  UNL1        0.0495
     40 C          67.4610   92.4634   11.8663 C.2     1  UNL1        0.2317
     41 N          68.2309   93.0244   10.7077 N.2     1  UNL1       -0.0350
     42 C          67.2455   93.5656    9.7148 C.2     1  UNL1        0.3518
     43 C          67.5803   94.2186    8.4065 C.3     1  UNL1        0.1367
     44 N          65.8665   93.3390   10.2597 N.2     1  UNL1       -0.0389
     45 C          65.9997   92.6578   11.5895 C.2     1  UNL1        0.2171
     46 C          64.9791   92.1895   12.5840 C.3     1  UNL1        0.0998
@<TRIPOS>BOND
     1    10    11    1
     2    11    12   ar
     3    12    13   ar
     4    13    14    1
     5    13    15   ar
     6    15    16   ar
     7    16     1    1
     8     1     2    2
     9     2     3    1
    10     3     4    2
    11     4     5    1
    12     5     6    2
    13     6    18    1
    14    18    19    1
    15    18    20    1
    16    18    21    1
    17    21    22    2
    18    21    23   am
    19    23    24    1
    20    24    25    1
    21    25    26    1
    22    26    27    1
    23    27    28    1
    24    28    29    1
    25     6     7    1
    26     7     8    1
    27     8     9    2
    28     9    30    1
    29    30    31    1
    30    30    32    1
    31    32    33    1
    32    33    35    1
    33    35    36    1
    34    36    37    1
    35    37    38    2
    36    38    39    1
    37    39    40    2
    38    40    41    1
    39    41    42    2
    40    42    43    1
    41    42    44    1
    42    44    45    2
    43    45    46    1
    44    16    17   ar
    45    17    11   ar
    46     9     1    1
    47    46    37    1
    48     8     3    1
    49    45    40    1
    50    27    23    1
    51    29    24    1
    52    33    34    1
@<TRIPOS>MOLECULE
*****
 46 52 0 0 0
SMALL
GASTEIGER

@<TRIPOS>ATOM
      1 C          62.2728   88.5914    9.7830 C.2     1  UNL1        0.0770
      2 N          62.5539   89.9955    9.3364 N.2     1  UNL1       -0.2460
      3 C          63.2696   90.7015   10.4496 C.2     1  UNL1        0.0773
      4 C          63.7953   92.1006   10.5767 C.2     1  UNL1        0.0182
      5 C          64.4822   92.5319   11.8384 C.2     1  UNL1       -0.0062
      6 C          64.6435   91.5642   12.9730 C.2     1  UNL1       -0.0322
      7 C          64.1178   90.1651   12.8460 C.3     1  UNL1        0.0500
      8 C          63.4309   89.7338   11.5842 C.2     1  UNL1       -0.0029
      9 C          62.8148   88.4297   11.1722 C.2     1  UNL1       -0.0057
     10 C          62.4484   84.2485    6.9353 C.3     1  UNL1        0.0310
     11 C          61.6604   85.3632    7.5573 C.ar    1  UNL1       -0.0221
     12 C          60.1724   85.4210    7.3774 C.ar    1  UNL1       -0.0085
     13 C          59.3845   86.5355    7.9994 C.ar    1  UNL1       -0.0221
     14 C          57.8964   86.5934    7.8195 C.3     1  UNL1        0.0310
     15 C          60.0847   87.5923    8.8013 C.ar    1  UNL1       -0.0028
     16 C          61.5727   87.5346    8.9811 C.ar    1  UNL1        0.0167
     17 C          62.3606   86.4200    8.3592 C.ar    1  UNL1       -0.0028
     18 C          65.3305   91.9956   14.2348 C.3     1  UNL1        0.0845
     19 C          65.8184   93.2351   13.5453 C.3     1  UNL1        0.0132
     20 C          64.8426   90.7560   14.9243 C.3     1  UNL1        0.0132
     21 C          66.0175   92.4270   15.4965 C.2     1  UNL1        0.2281
     22 O          65.2100   92.7357   16.7223 O.2     1  UNL1       -0.2746
     23 N          67.5121   92.5497   15.5324 N.am    1  UNL1       -0.2826
     24 C          68.4469   92.2761   14.3917 C.3     1  UNL1        0.0754
     25 C          69.8468   92.5248   14.8697 C.3     1  UNL1        0.0215
     26 C          69.7772   92.9521   16.3058 C.3     1  UNL1        0.0215
     27 C          68.3342   92.9675   16.7154 C.3     1  UNL1        0.0754
     28 C          66.9343   92.7188   16.2375 C.3     1  UNL1        0.0215
     29 C          67.0039   92.2914   14.8013 C.3     1  UNL1        0.0215
     30 C          62.7519   87.1827   12.0036 C.3     1  UNL1        0.0393
     31 C          61.5986   86.2359   11.8495 C.3     1  UNL1        0.0062
     32 C          63.8421   86.8824   12.9890 C.3     1  UNL1        0.0730
     33 N          63.7243   87.3593   14.4063 N.3     1  UNL1       -0.2969
     34 H          62.7786   87.7255   14.5162 H       1  UNL1        0.1233
     35 C          63.9535   86.4047   15.5404 C.3     1  UNL1        0.0730
     36 C          64.6912   85.1205   15.3023 C.3     1  UNL1        0.0395
     37 C          64.0140   83.9874   14.5900 C.2     1  UNL1       -0.0344
     38 C          62.8658   83.2728   15.2390 C.2     1  UNL1       -0.0041
     39 C          62.1886   82.1397   14.5267 C.2     1  UNL1        0.0495
     40 C          62.6595   81.7211   13.1654 C.2     1  UNL1        0.2317
     41 N          62.1914   80.6483   12.2274 N.2     1  UNL1       -0.0350
     42 C          63.0503   80.6997   10.9987 C.2     1  UNL1        0.3518
     43 C          62.9311   79.8038    9.8016 C.3     1  UNL1        0.1367
     44 N          64.0492   81.8044   11.1774 N.2     1  UNL1       -0.0389
     45 C          63.8076   82.4356   12.5165 C.2     1  UNL1        0.2171
     46 C          64.4849   83.5688   13.2288 C.3     1  UNL1        0.0998
@<TRIPOS>BOND
     1    10    11    1
     2    11    12   ar
     3    12    13   ar
     4    13    14    1
     5    13    15   ar
     6    15    16   ar
     7    16     1    1
     8     1     2    2
     9     2     3    1
    10     3     4    2
    11     4     5    1
    12     5     6    2
    13     6    18    1
    14    18    19    1
    15    18    20    1
    16    18    21    1
    17    21    22    2
    18    21    23   am
    19    23    24    1
    20    24    25    1
    21    25    26    1
    22    26    27    1
    23    27    28    1
    24    28    29    1
    25     6     7    1
    26     7     8    1
    27     8     9    2
    28     9    30    1
    29    30    31    1
    30    30    32    1
    31    32    33    1
    32    33    35    1
    33    35    36    1
    34    36    37    1
    35    37    38    2
    36    38    39    1
    37    39    40    2
    38    40    41    1
    39    41    42    2
    40    42    43    1
    41    42    44    1
    42    44    45    2
    43    45    46    1
    44    16    17   ar
    45    17    11   ar
    46     9     1    1
    47    46    37    1
    48     8     3    1
    49    45    40    1
    50    27    23    1
    51    29    24    1
    52    33    34    1
@<TRIPOS>MOLECULE
*****
 46 52 0 0 0
SMALL
GASTEIGER

@<TRIPOS>ATOM
      1 C          60.0578   88.4740    7.0703 C.2     1  UNL1        0.0770
      2 N          60.2482   87.0678    6.5840 N.2     1  UNL1       -0.2460
      3 C          60.9087   86.2840    7.6792 C.2     1  UNL1        0.0773
      4 C          61.3399   84.8501    7.7676 C.2     1  UNL1        0.0182
      5 C          61.9888   84.3379    9.0191 C.2     1  UNL1       -0.0062
      6 C          62.2065   85.2596   10.1823 C.2     1  UNL1       -0.0322
      7 C          61.7753   86.6935   10.0940 C.3     1  UNL1        0.0500
      8 C          61.1263   87.2057    8.8424 C.2     1  UNL1       -0.0029
      9 C          60.6004   88.5591    8.4661 C.2     1  UNL1       -0.0057
     10 C          55.8280   91.0439    5.4876 C.3     1  UNL1        0.0310
     11 C          57.3193   90.8826    5.5053 C.ar    1  UNL1       -0.0221
     12 C          58.1867   91.8449    4.7495 C.ar    1  UNL1       -0.0085
     13 C          59.6779   91.6835    4.7672 C.ar    1  UNL1       -0.0221
     14 C          60.5455   92.6459    4.0113 C.3     1  UNL1        0.0310
     15 C          60.3016   90.5599    5.5408 C.ar    1  UNL1       -0.0028
     16 C          59.4341   89.5976    6.2967 C.ar    1  UNL1        0.0167
     17 C          57.9429   89.7589    6.2790 C.ar    1  UNL1       -0.0028
     18 C          62.8555   84.7473   11.4340 C.3     1  UNL1        0.0845
     19 C          61.9470   85.6104   12.2583 C.3     1  UNL1        0.0132
     20 C          63.7640   83.8841   10.6097 C.3     1  UNL1        0.0132
     21 C          63.5044   84.2350   12.6855 C.2     1  UNL1        0.2281
     22 O          64.3693   85.1438   13.5079 O.2     1  UNL1       -0.2746
     23 N          63.2885   82.8141   13.1148 N.am    1  UNL1       -0.2826
     24 C          62.4545   81.7937   12.3984 C.3     1  UNL1        0.0754
     25 C          62.5192   80.5130   13.1767 C.3     1  UNL1        0.0215
     26 C          63.3932   80.7419   14.3741 C.3     1  UNL1        0.0215
     27 C          63.8686   82.1640   14.3358 C.3     1  UNL1        0.0754
     28 C          63.8039   83.4447   13.5576 C.3     1  UNL1        0.0215
     29 C          62.9299   83.2158   12.3602 C.3     1  UNL1        0.0215
     30 C          60.6148   89.7829    9.3334 C.3     1  UNL1        0.0393
     31 C          59.3967   90.1548   10.1260 C.3     1  UNL1        0.0062
     32 C          61.8470   90.6349    9.4080 C.3     1  UNL1        0.0730
     33 N          62.8651   90.3889   10.4818 N.3     1  UNL1       -0.2969
     34 H          63.3562   91.2706   10.6295 H       1  UNL1        0.1233
     35 C          62.4283   89.9050   11.8327 C.3     1  UNL1        0.0730
     36 C          63.4331   89.3212   12.7812 C.3     1  UNL1        0.0395
     37 C          64.1380   90.2067   13.7656 C.2     1  UNL1       -0.0344
     38 C          63.5417   90.4450   15.1212 C.2     1  UNL1       -0.0041
     39 C          64.2466   91.3304   16.1056 C.2     1  UNL1        0.0495
     40 C          65.5479   91.9777   15.7344 C.2     1  UNL1        0.2317
     41 N          66.4651   92.8929   16.4900 N.2     1  UNL1       -0.0350
     42 C          67.6284   93.2202   15.6015 C.2     1  UNL1        0.3518
     43 C          68.7866   94.1051   15.9556 C.3     1  UNL1        0.1367
     44 N          67.4301   92.5073   14.2967 N.2     1  UNL1       -0.0389
     45 C          66.1442   91.7394   14.3789 C.2     1  UNL1        0.2171
     46 C          65.4393   90.8539   13.3945 C.3     1  UNL1        0.0998
@<TRIPOS>BOND
     1    10    11    1
     2    11    12   ar
     3    12    13   ar
     4    13    14    1
     5    13    15   ar
     6    15    16   ar
     7    16     1    1
     8     1     2    2
     9     2     3    1
    10     3     4    2
    11     4     5    1
    12     5     6    2
    13     6    18    1
    14    18    19    1
    15    18    20    1
    16    18    21    1
    17    21    22    2
    18    21    23   am
    19    23    24    1
    20    24    25    1
    21    25    26    1
    22    26    27    1
    23    27    28    1
    24    28    29    1
    25     6     7    1
    26     7     8    1
    27     8     9    2
    28     9    30    1
    29    30    31    1
    30    30    32    1
    31    32    33    1
    32    33    35    1
    33    35    36    1
    34    36    37    1
    35    37    38    2
    36    38    39    1
    37    39    40    2
    38    40    41    1
    39    41    42    2
    40    42    43    1
    41    42    44    1
    42    44    45    2
    43    45    46    1
    44    16    17   ar
    45    17    11   ar
    46     9     1    1
    47    46    37    1
    48     8     3    1
    49    45    40    1
    50    27    23    1
    51    29    24    1
    52    33    34    1
@<TRIPOS>MOLECULE
*****
 46 52 0 0 0
SMALL
GASTEIGER

@<TRIPOS>ATOM
      1 C          60.0624   88.2986    7.0787 C.2     1  UNL1        0.0770
      2 N          60.3695   86.9419    6.5173 N.2     1  UNL1       -0.2460
      3 C          61.0440   86.1384    7.5894 C.2     1  UNL1        0.0773
      4 C          61.5724   84.7347    7.6092 C.2     1  UNL1        0.0182
      5 C          62.2106   84.1911    8.8530 C.2     1  UNL1       -0.0062
      6 C          62.3204   85.0512   10.0770 C.2     1  UNL1       -0.0322
      7 C          61.7921   86.4549   10.0572 C.3     1  UNL1        0.0500
      8 C          61.1539   86.9985    8.8134 C.2     1  UNL1       -0.0029
      9 C          60.5472   88.3335    8.4977 C.2     1  UNL1       -0.0057
     10 C          55.7249   90.7827    5.6593 C.3     1  UNL1        0.0310
     11 C          57.2202   90.6650    5.6394 C.ar    1  UNL1       -0.0221
     12 C          58.0418   91.6715    4.8899 C.ar    1  UNL1       -0.0085
     13 C          59.5370   91.5537    4.8700 C.ar    1  UNL1       -0.0221
     14 C          60.3588   92.5602    4.1205 C.3     1  UNL1        0.0310
     15 C          60.2106   90.4294    5.5996 C.ar    1  UNL1       -0.0028
     16 C          59.3889   89.4229    6.3491 C.ar    1  UNL1        0.0167
     17 C          57.8937   89.5407    6.3690 C.ar    1  UNL1       -0.0028
     18 C          62.9587   84.5075   11.3209 C.3     1  UNL1        0.0845
     19 C          63.8546   83.6437   10.4836 C.3     1  UNL1        0.0132
     20 C          62.0628   85.3713   12.1582 C.3     1  UNL1        0.0132
     21 C          63.5970   83.9638   12.5647 C.2     1  UNL1        0.2281
     22 O          64.5430   84.8170   13.3567 O.2     1  UNL1       -0.2746
     23 N          63.2893   82.5670   13.0165 N.am    1  UNL1       -0.2826
     24 C          62.3684   81.6014   12.3312 C.3     1  UNL1        0.0754
     25 C          62.3584   80.3281   13.1241 C.3     1  UNL1        0.0215
     26 C          63.2731   80.5068   14.2994 C.3     1  UNL1        0.0215
     27 C          63.8484   81.8905   14.2329 C.3     1  UNL1        0.0754
     28 C          63.8584   83.1638   13.4400 C.3     1  UNL1        0.0215
     29 C          62.9437   82.9851   12.2647 C.3     1  UNL1        0.0215
     30 C          60.4436   89.4989    9.4364 C.3     1  UNL1        0.0393
     31 C          61.2226   90.7519    9.1653 C.3     1  UNL1        0.0062
     32 C          59.5610   89.4115   10.6460 C.3     1  UNL1        0.0730
     33 N          60.1181   88.9131   11.9465 N.3     1  UNL1       -0.2969
     34 H          60.4894   87.9798   11.7694 H       1  UNL1        0.1233
     35 C          61.1994   89.6841   12.6439 C.3     1  UNL1        0.0730
     36 C          62.6403   89.3677   12.3727 C.3     1  UNL1        0.0395
     37 C          63.6707   90.4563   12.4290 C.2     1  UNL1       -0.0344
     38 C          64.4919   90.6485   13.6694 C.2     1  UNL1       -0.0041
     39 C          65.5222   91.7371   13.7257 C.2     1  UNL1        0.0495
     40 C          65.7315   92.6336   12.5415 C.2     1  UNL1        0.2317
     41 N          66.6660   93.7830   12.3055 N.2     1  UNL1       -0.0350
     42 C          66.4223   94.3013   10.9191 C.2     1  UNL1        0.3518
     43 C          67.1381   95.4474   10.2679 C.3     1  UNL1        0.1367
     44 N          65.3374   93.4722   10.2983 N.2     1  UNL1       -0.0389
     45 C          64.9104   92.4415   11.3010 C.2     1  UNL1        0.2171
     46 C          63.8800   91.3529   11.2447 C.3     1  UNL1        0.0998
@<TRIPOS>BOND
     1    10    11    1
     2    11    12   ar
     3    12    13   ar
     4    13    14    1
     5    13    15   ar
     6    15    16   ar
     7    16     1    1
     8     1     2    2
     9     2     3    1
    10     3     4    2
    11     4     5    1
    12     5     6    2
    13     6    18    1
    14    18    19    1
    15    18    20    1
    16    18    21    1
    17    21    22    2
    18    21    23   am
    19    23    24    1
    20    24    25    1
    21    25    26    1
    22    26    27    1
    23    27    28    1
    24    28    29    1
    25     6     7    1
    26     7     8    1
    27     8     9    2
    28     9    30    1
    29    30    31    1
    30    30    32    1
    31    32    33    1
    32    33    35    1
    33    35    36    1
    34    36    37    1
    35    37    38    2
    36    38    39    1
    37    39    40    2
    38    40    41    1
    39    41    42    2
    40    42    43    1
    41    42    44    1
    42    44    45    2
    43    45    46    1
    44    16    17   ar
    45    17    11   ar
    46     9     1    1
    47    46    37    1
    48     8     3    1
    49    45    40    1
    50    27    23    1
    51    29    24    1
    52    33    34    1
@<TRIPOS>MOLECULE
*****
 46 52 0 0 0
SMALL
GASTEIGER

@<TRIPOS>ATOM
      1 C          60.0786   88.2413    7.0878 C.2     1  UNL1        0.0770
      2 N          60.4631   86.9155    6.5009 N.2     1  UNL1       -0.2460
      3 C          61.1135   86.1018    7.5802 C.2     1  UNL1        0.0773
      4 C          61.6921   84.7179    7.5832 C.2     1  UNL1        0.0182
      5 C          62.2881   84.1569    8.8401 C.2     1  UNL1       -0.0062
      6 C          62.3055   84.9798   10.0942 C.2     1  UNL1       -0.0322
      7 C          61.7270   86.3637   10.0912 C.3     1  UNL1        0.0500
      8 C          61.1309   86.9247    8.8342 C.2     1  UNL1       -0.0029
      9 C          60.4913   88.2469    8.5299 C.2     1  UNL1       -0.0057
     10 C          55.7320   90.7222    5.6906 C.3     1  UNL1        0.0310
     11 C          57.2271   90.6047    5.6618 C.ar    1  UNL1       -0.0221
     12 C          58.0440   91.6100    4.9055 C.ar    1  UNL1       -0.0085
     13 C          59.5391   91.4924    4.8767 C.ar    1  UNL1       -0.0221
     14 C          60.3561   92.4977    4.1204 C.3     1  UNL1        0.0310
     15 C          60.2173   90.3695    5.6041 C.ar    1  UNL1       -0.0028
     16 C          59.4004   89.3642    6.3604 C.ar    1  UNL1        0.0167
     17 C          57.9053   89.4818    6.3892 C.ar    1  UNL1       -0.0028
     18 C          62.9016   84.4188   11.3512 C.3     1  UNL1        0.0845
     19 C          63.8890   83.6388   10.5347 C.3     1  UNL1        0.0132
     20 C          61.9143   85.1988   12.1676 C.3     1  UNL1        0.0132
     21 C          63.4977   83.8577   12.6081 C.2     1  UNL1        0.2281
     22 O          63.6375   82.3735   12.7743 O.2     1  UNL1       -0.2746
     23 N          63.9539   84.7809   13.6988 N.am    1  UNL1       -0.2826
     24 C          63.8784   86.2788   13.6752 C.3     1  UNL1        0.0754
     25 C          64.4436   86.7918   14.9665 C.3     1  UNL1        0.0215
     26 C          64.8685   85.6110   15.7881 C.3     1  UNL1        0.0215
     27 C          64.5658   84.3682   15.0047 C.3     1  UNL1        0.0754
     28 C          64.0006   83.8551   13.7134 C.3     1  UNL1        0.0215
     29 C          63.5757   85.0359   12.8918 C.3     1  UNL1        0.0215
     30 C          60.2984   89.3766    9.4978 C.3     1  UNL1        0.0393
     31 C          60.9622   90.6986    9.2495 C.3     1  UNL1        0.0062
     32 C          59.4416   89.1842   10.7138 C.3     1  UNL1        0.0730
     33 N          60.0760   88.8687   12.0360 N.3     1  UNL1       -0.2969
     34 H          60.4346   87.9161   11.9706 H       1  UNL1        0.1233
     35 C          61.1987   89.7196   12.5513 C.3     1  UNL1        0.0730
     36 C          62.6095   89.4372   12.1270 C.3     1  UNL1        0.0395
     37 C          63.6845   90.4538   12.3736 C.2     1  UNL1       -0.0344
     38 C          64.0755   91.4107   11.2867 C.2     1  UNL1       -0.0041
     39 C          65.1506   92.4273   11.5333 C.2     1  UNL1        0.0495
     40 C          65.8347   92.4870   12.8669 C.2     1  UNL1        0.2317
     41 N          66.9214   93.3736   13.3987 N.2     1  UNL1       -0.0350
     42 C          67.2021   92.9647   14.8143 C.2     1  UNL1        0.3518
     43 C          68.2178   93.5860   15.7266 C.3     1  UNL1        0.1367
     44 N          66.2889   91.8253   15.1574 N.2     1  UNL1       -0.0389
     45 C          65.4437   91.5301   13.9538 C.2     1  UNL1        0.2171
     46 C          64.3687   90.5135   13.7072 C.3     1  UNL1        0.0998
@<TRIPOS>BOND
     1    10    11    1
     2    11    12   ar
     3    12    13   ar
     4    13    14    1
     5    13    15   ar
     6    15    16   ar
     7    16     1    1
     8     1     2    2
     9     2     3    1
    10     3     4    2
    11     4     5    1
    12     5     6    2
    13     6    18    1
    14    18    19    1
    15    18    20    1
    16    18    21    1
    17    21    22    2
    18    21    23   am
    19    23    24    1
    20    24    25    1
    21    25    26    1
    22    26    27    1
    23    27    28    1
    24    28    29    1
    25     6     7    1
    26     7     8    1
    27     8     9    2
    28     9    30    1
    29    30    31    1
    30    30    32    1
    31    32    33    1
    32    33    35    1
    33    35    36    1
    34    36    37    1
    35    37    38    2
    36    38    39    1
    37    39    40    2
    38    40    41    1
    39    41    42    2
    40    42    43    1
    41    42    44    1
    42    44    45    2
    43    45    46    1
    44    16    17   ar
    45    17    11   ar
    46     9     1    1
    47    46    37    1
    48     8     3    1
    49    45    40    1
    50    27    23    1
    51    29    24    1
    52    33    34    1
