@<TRIPOS>MOLECULE
*****
 42 47 0 0 0
SMALL
GASTEIGER

@<TRIPOS>ATOM
      1 C          59.2080   88.5569    7.2650 C.2     1  UNL1        0.2252
      2 O          58.2118   87.4681    6.9964 O.2     1  UNL1       -0.2749
      3 N          60.1007   88.4765    8.4678 N.am    1  UNL1       -0.2794
      4 C          59.9973   87.3073    9.4018 C.3     1  UNL1        0.0953
      5 C          60.8900   87.2269   10.6045 C.3     1  UNL1        0.0442
      6 C          61.8863   88.3157   10.8732 C.3     1  UNL1        0.0933
      7 C          61.9896   89.4848    9.9392 C.3     1  UNL1        0.0442
      8 C          61.0969   89.5652    8.7365 C.3     1  UNL1        0.0953
      9 N          62.7790   88.2353   12.0759 N.ar    1  UNL1       -0.2817
     10 C          63.1278   86.9884   12.8333 C.ar    1  UNL1        0.3315
     11 O          62.6451   85.6030   12.5209 O.2     1  UNL1       -0.2463
     12 N          64.0441   87.3702   13.9578 N.ar    1  UNL1       -0.2785
     13 C          64.2616   88.8530   13.8955 C.ar    1  UNL1        0.0797
     14 C          65.0706   89.7855   14.7476 C.ar    1  UNL1        0.0188
     15 C          65.0977   91.2526   14.4365 C.ar    1  UNL1        0.0016
     16 C          64.3159   91.7873   13.2734 C.ar    1  UNL1        0.0016
     17 C          63.5069   90.8548   12.4214 C.ar    1  UNL1        0.0188
     18 C          63.4798   89.3877   12.7324 C.ar    1  UNL1        0.0796
     19 C          64.6385   86.4336   14.9675 C.3     1  UNL1        0.1278
     20 C          63.7903   85.3634   15.5884 C.3     1  UNL1        0.0972
     21 N          63.5632   84.0707   14.8622 N.3     1  UNL1       -0.2668
     22 C          62.3201   83.2727   15.1224 C.3     1  UNL1        0.1047
     23 C          62.0931   81.9800   14.3962 C.3     1  UNL1        0.1595
     24 O          63.1091   81.4855   13.4098 O.3     1  UNL1       -0.3508
     25 C          64.3522   82.2835   13.1495 C.3     1  UNL1        0.1595
     26 C          64.5792   83.5762   13.8757 C.3     1  UNL1        0.1047
     27 N          59.5182   92.0644    4.4631 N.3     1  UNL1       -0.2689
     28 C          58.1916   91.6944    5.0576 C.3     1  UNL1        0.0729
     29 C          58.0882   90.5252    5.9916 C.3     1  UNL1        0.0264
     30 C          59.3114   89.7260    6.3310 C.3     1  UNL1        0.0795
     31 C          60.6379   90.0960    5.7366 C.3     1  UNL1        0.0264
     32 C          60.7413   91.2652    4.8026 C.3     1  UNL1        0.0729
     33 C          59.6217   93.2335    3.5291 C.3     1  UNL1        0.0993
     34 N          58.8080   92.2693   -1.5116 N.pl3   1  UNL1       -0.3426
     35 C          59.7488   92.5575   -0.3794 C.ar    1  UNL1        0.1251
     36 C          59.2148   92.7514    1.0088 C.ar    1  UNL1        0.0310
     37 C          60.1558   93.0396    2.1409 C.ar    1  UNL1       -0.0018
     38 C          61.6307   93.1338    1.8848 C.ar    1  UNL1        0.0179
     39 C          62.1647   92.9399    0.4965 C.ar    1  UNL1        0.1000
     40 N          61.2238   92.6517   -0.6356 N.ar    1  UNL1       -0.2296
     41 H          57.8399   92.2075   -1.3435 H       1  UNL1        0.1437
     42 H          59.1585   92.1421   -2.4227 H       1  UNL1        0.1437
@<TRIPOS>BOND
     1    34    35    1
     2    35    36   ar
     3    36    37   ar
     4    37    33    1
     5    33    27    1
     6    27    28    1
     7    28    29    1
     8    29    30    1
     9    30     1    1
    10     1     2    2
    11     1     3   am
    12     3     4    1
    13     4     5    1
    14     5     6    1
    15     6     9    1
    16     9    10   ar
    17    10    11    2
    18    10    12   ar
    19    12    19    1
    20    19    20    1
    21    20    21    1
    22    21    22    1
    23    22    23    1
    24    23    24    1
    25    24    25    1
    26    25    26    1
    27    12    13   ar
    28    13    14   ar
    29    14    15   ar
    30    15    16   ar
    31    16    17   ar
    32    17    18   ar
    33     6     7    1
    34     7     8    1
    35    30    31    1
    36    31    32    1
    37    37    38   ar
    38    38    39   ar
    39    39    40   ar
    40    40    35   ar
    41    32    27    1
    42     8     3    1
    43    18     9   ar
    44    26    21    1
    45    18    13   ar
    46    34    41    1
    47    34    42    1
@<TRIPOS>MOLECULE
*****
 42 47 0 0 0
SMALL
GASTEIGER

@<TRIPOS>ATOM
      1 C          59.2868   88.5575    7.2873 C.2     1  UNL1        0.2252
      2 O          58.3412   87.4286    7.0021 O.2     1  UNL1       -0.2749
      3 N          60.1460   88.5237    8.5165 N.am    1  UNL1       -0.2794
      4 C          60.0595   87.3611    9.4603 C.3     1  UNL1        0.0953
      5 C          60.9186   87.3273   10.6894 C.3     1  UNL1        0.0442
      6 C          61.8643   88.4563   10.9747 C.3     1  UNL1        0.0933
      7 C          61.9507   89.6188   10.0309 C.3     1  UNL1        0.0442
      8 C          61.0916   89.6526    8.8018 C.3     1  UNL1        0.0953
      9 N          62.7234   88.4225   12.2039 N.ar    1  UNL1       -0.2817
     10 C          63.1738   89.6129   12.9977 C.ar    1  UNL1        0.3315
     11 O          62.8442   91.0460   12.7018 O.2     1  UNL1       -0.2463
     12 N          64.0117   89.1185   14.1394 N.ar    1  UNL1       -0.2785
     13 C          64.0791   87.6226   14.0512 C.ar    1  UNL1        0.0797
     14 C          64.7627   86.5966   14.9056 C.ar    1  UNL1        0.0188
     15 C          64.6500   85.1404   14.5637 C.ar    1  UNL1        0.0016
     16 C          63.8537   84.7103   13.3675 C.ar    1  UNL1        0.0016
     17 C          63.1702   85.7363   12.5131 C.ar    1  UNL1        0.0188
     18 C          63.2829   87.1925   12.8549 C.ar    1  UNL1        0.0796
     19 C          64.6671   89.9704   15.1857 C.3     1  UNL1        0.1278
     20 C          64.9252   91.4233   14.9163 C.3     1  UNL1        0.0972
     21 N          66.3335   91.9248   14.7935 N.3     1  UNL1       -0.2668
     22 C          66.9411   92.7328   15.9016 C.3     1  UNL1        0.1047
     23 C          68.3495   93.2342   15.7789 C.3     1  UNL1        0.1595
     24 O          69.1502   92.9277   14.5480 O.3     1  UNL1       -0.3508
     25 C          68.5426   92.1197   13.4399 C.3     1  UNL1        0.1595
     26 C          67.1342   91.6182   13.5627 C.3     1  UNL1        0.1047
     27 N          59.5463   92.0453    4.4559 N.3     1  UNL1       -0.2689
     28 C          58.2217   91.6478    5.0368 C.3     1  UNL1        0.0729
     29 C          58.1352   90.4852    5.9806 C.3     1  UNL1        0.0264
     30 C          59.3733   89.7201    6.3435 C.3     1  UNL1        0.0795
     31 C          60.6979   90.1176    5.7626 C.3     1  UNL1        0.0264
     32 C          60.7844   91.2802    4.8188 C.3     1  UNL1        0.0729
     33 C          59.6328   93.2080    3.5120 C.3     1  UNL1        0.0993
     34 N          58.7811   92.3100   -1.5346 N.pl3   1  UNL1       -0.3426
     35 C          59.7325   92.5588   -0.4018 C.ar    1  UNL1        0.1251
     36 C          59.2070   92.7590    0.9888 C.ar    1  UNL1        0.0310
     37 C          60.1584   93.0077    2.1215 C.ar    1  UNL1       -0.0018
     38 C          61.6352   93.0562    1.8636 C.ar    1  UNL1        0.0179
     39 C          62.1607   92.8559    0.4730 C.ar    1  UNL1        0.1000
     40 N          61.2093   92.6072   -0.6597 N.ar    1  UNL1       -0.2296
     41 H          57.8118   92.2782   -1.3654 H       1  UNL1        0.1437
     42 H          59.1261   92.1786   -2.4473 H       1  UNL1        0.1437
@<TRIPOS>BOND
     1    34    35    1
     2    35    36   ar
     3    36    37   ar
     4    37    33    1
     5    33    27    1
     6    27    28    1
     7    28    29    1
     8    29    30    1
     9    30     1    1
    10     1     2    2
    11     1     3   am
    12     3     4    1
    13     4     5    1
    14     5     6    1
    15     6     9    1
    16     9    10   ar
    17    10    11    2
    18    10    12   ar
    19    12    19    1
    20    19    20    1
    21    20    21    1
    22    21    22    1
    23    22    23    1
    24    23    24    1
    25    24    25    1
    26    25    26    1
    27    12    13   ar
    28    13    14   ar
    29    14    15   ar
    30    15    16   ar
    31    16    17   ar
    32    17    18   ar
    33     6     7    1
    34     7     8    1
    35    30    31    1
    36    31    32    1
    37    37    38   ar
    38    38    39   ar
    39    39    40   ar
    40    40    35   ar
    41    32    27    1
    42     8     3    1
    43    18     9   ar
    44    26    21    1
    45    18    13   ar
    46    34    41    1
    47    34    42    1
@<TRIPOS>MOLECULE
*****
 42 47 0 0 0
SMALL
GASTEIGER

@<TRIPOS>ATOM
      1 C          62.7309   86.3938   16.8578 C.2     1  UNL1        0.2252
      2 O          61.9907   86.4827   18.1594 O.2     1  UNL1       -0.2749
      3 N          63.3182   87.6296   16.2431 N.am    1  UNL1       -0.2794
      4 C          63.1652   88.9543   16.9300 C.3     1  UNL1        0.0953
      5 C          63.7525   90.1901   16.3153 C.3     1  UNL1        0.0442
      6 C          64.4927   90.1012   15.0136 C.3     1  UNL1        0.0933
      7 C          64.6457   88.7766   14.3268 C.3     1  UNL1        0.0442
      8 C          64.0584   87.5408   14.9415 C.3     1  UNL1        0.0953
      9 N          65.0800   91.3371   14.3989 N.ar    1  UNL1       -0.2817
     10 C          64.6338   91.9837   13.1211 C.ar    1  UNL1        0.3315
     11 O          63.5220   91.5080   12.2336 O.2     1  UNL1       -0.2463
     12 N          65.4946   93.1895   12.8866 N.ar    1  UNL1       -0.2785
     13 C          66.4728   93.2881   14.0195 C.ar    1  UNL1        0.0797
     14 C          67.5638   94.2725   14.3207 C.ar    1  UNL1        0.0188
     15 C          68.3985   94.1120   15.5566 C.ar    1  UNL1        0.0016
     16 C          68.1423   92.9671   16.4912 C.ar    1  UNL1        0.0016
     17 C          67.0513   91.9827   16.1900 C.ar    1  UNL1        0.0188
     18 C          66.2166   92.1432   14.9541 C.ar    1  UNL1        0.0796
     19 C          65.3948   94.1314   11.7235 C.3     1  UNL1        0.1278
     20 C          66.6408   94.6792   11.0929 C.3     1  UNL1        0.0972
     21 N          67.3717   93.8778   10.0568 N.3     1  UNL1       -0.2668
     22 C          67.7360   92.4492   10.3331 C.3     1  UNL1        0.1047
     23 C          68.4669   91.6478    9.2969 C.3     1  UNL1        0.1595
     24 O          68.8334   92.2750    7.9846 O.3     1  UNL1       -0.3508
     25 C          68.4691   93.7036    7.7083 C.3     1  UNL1        0.1595
     26 C          67.7382   94.5050    8.7444 C.3     1  UNL1        0.1047
     27 N          63.1898   82.4197   14.7971 N.3     1  UNL1       -0.2689
     28 C          64.3957   83.1247   15.3441 C.3     1  UNL1        0.0729
     29 C          64.2427   84.4494   16.0310 C.3     1  UNL1        0.0264
     30 C          62.8839   85.0691   16.1709 C.3     1  UNL1        0.0795
     31 C          61.6780   84.3642   15.6240 C.3     1  UNL1        0.0264
     32 C          61.8310   83.0395   14.9371 C.3     1  UNL1        0.0729
     33 C          63.3428   81.0951   14.1102 C.3     1  UNL1        0.0993
     34 N          62.4905   78.4339    9.7294 N.pl3   1  UNL1       -0.3426
     35 C          62.9223   79.6927   10.4216 C.ar    1  UNL1        0.1251
     36 C          62.9167   79.7645   11.9199 C.ar    1  UNL1        0.0310
     37 C          63.3485   81.0233   12.6120 C.ar    1  UNL1       -0.0018
     38 C          63.7860   82.2102   11.8059 C.ar    1  UNL1        0.0179
     39 C          63.7916   82.1383   10.3076 C.ar    1  UNL1        0.1000
     40 N          63.3598   80.8796    9.6155 N.ar    1  UNL1       -0.2296
     41 H          62.2034   77.6549   10.2584 H       1  UNL1        0.1437
     42 H          62.4943   78.3868    8.7460 H       1  UNL1        0.1437
@<TRIPOS>BOND
     1    34    35    1
     2    35    36   ar
     3    36    37   ar
     4    37    33    1
     5    33    27    1
     6    27    28    1
     7    28    29    1
     8    29    30    1
     9    30     1    1
    10     1     2    2
    11     1     3   am
    12     3     4    1
    13     4     5    1
    14     5     6    1
    15     6     9    1
    16     9    10   ar
    17    10    11    2
    18    10    12   ar
    19    12    19    1
    20    19    20    1
    21    20    21    1
    22    21    22    1
    23    22    23    1
    24    23    24    1
    25    24    25    1
    26    25    26    1
    27    12    13   ar
    28    13    14   ar
    29    14    15   ar
    30    15    16   ar
    31    16    17   ar
    32    17    18   ar
    33     6     7    1
    34     7     8    1
    35    30    31    1
    36    31    32    1
    37    37    38   ar
    38    38    39   ar
    39    39    40   ar
    40    40    35   ar
    41    32    27    1
    42     8     3    1
    43    18     9   ar
    44    26    21    1
    45    18    13   ar
    46    34    41    1
    47    34    42    1
@<TRIPOS>MOLECULE
*****
 42 47 0 0 0
SMALL
GASTEIGER

@<TRIPOS>ATOM
      1 C          58.3709   90.0737    6.3294 C.2     1  UNL1        0.2252
      2 O          56.8724   90.0782    6.2625 O.2     1  UNL1       -0.2749
      3 N          59.1691   90.8409    5.3174 N.am    1  UNL1       -0.2794
      4 C          58.4688   91.6125    4.2384 C.3     1  UNL1        0.0953
      5 C          59.2671   92.3798    3.2264 C.3     1  UNL1        0.0442
      6 C          60.7656   92.3753    3.2933 C.3     1  UNL1        0.0933
      7 C          61.4658   91.6037    4.3722 C.3     1  UNL1        0.0442
      8 C          60.6676   90.8364    5.3843 C.3     1  UNL1        0.0953
      9 N          61.5639   93.1425    2.2812 N.ar    1  UNL1       -0.2817
     10 C          62.9869   92.8719    1.8916 C.ar    1  UNL1        0.3315
     11 O          63.8615   91.7865    2.4457 O.2     1  UNL1       -0.2463
     12 N          63.3816   93.8772    0.8507 N.ar    1  UNL1       -0.2785
     13 C          62.2026   94.7691    0.5970 C.ar    1  UNL1        0.0797
     14 C          62.0069   95.9361   -0.3248 C.ar    1  UNL1        0.0188
     15 C          60.6877   96.6490   -0.3625 C.ar    1  UNL1        0.0016
     16 C          59.5643   96.1950    0.5216 C.ar    1  UNL1        0.0016
     17 C          59.7600   95.0280    1.4434 C.ar    1  UNL1        0.0188
     18 C          61.0792   94.3151    1.4811 C.ar    1  UNL1        0.0796
     19 C          64.7204   93.9736    0.1811 C.3     1  UNL1        0.1278
     20 C          65.1611   95.2702   -0.4312 C.3     1  UNL1        0.0972
     21 N          65.0434   95.4787   -1.9120 N.3     1  UNL1       -0.2668
     22 C          65.7254   96.6461   -2.5615 C.3     1  UNL1        0.1047
     23 C          65.6077   96.8545   -4.0423 C.3     1  UNL1        0.1595
     24 O          64.8080   95.8955   -4.8735 O.3     1  UNL1       -0.3508
     25 C          64.1260   94.7281   -4.2240 C.3     1  UNL1        0.1595
     26 C          64.2437   94.5197   -2.7432 C.3     1  UNL1        0.1047
     27 N          60.4717   87.7587    9.5663 N.3     1  UNL1       -0.2689
     28 C          59.6974   87.0323    8.5066 C.3     1  UNL1        0.0729
     29 C          58.9971   87.8039    7.4276 C.3     1  UNL1        0.0264
     30 C          59.0712   89.3020    7.4084 C.3     1  UNL1        0.0795
     31 C          59.8455   90.0284    8.4680 C.3     1  UNL1        0.0264
     32 C          60.5457   89.2567    9.5469 C.3     1  UNL1        0.0729
     33 C          61.1720   86.9870   10.6452 C.3     1  UNL1        0.0993
     34 N          63.7129   82.6655   12.0119 N.pl3   1  UNL1       -0.3426
     35 C          63.3345   83.6753   10.9692 C.ar    1  UNL1        0.1251
     36 C          62.4424   84.8263   11.3285 C.ar    1  UNL1        0.0310
     37 C          62.0641   85.8360   10.2858 C.ar    1  UNL1       -0.0018
     38 C          62.5779   85.6947    8.8836 C.ar    1  UNL1        0.0179
     39 C          63.4701   84.5437    8.5243 C.ar    1  UNL1        0.1000
     40 N          63.8484   83.5339    9.5670 N.ar    1  UNL1       -0.2296
     41 H          63.3757   82.7582   12.9322 H       1  UNL1        0.1437
     42 H          64.2985   81.9100   11.7759 H       1  UNL1        0.1437
@<TRIPOS>BOND
     1    34    35    1
     2    35    36   ar
     3    36    37   ar
     4    37    33    1
     5    33    27    1
     6    27    28    1
     7    28    29    1
     8    29    30    1
     9    30     1    1
    10     1     2    2
    11     1     3   am
    12     3     4    1
    13     4     5    1
    14     5     6    1
    15     6     9    1
    16     9    10   ar
    17    10    11    2
    18    10    12   ar
    19    12    19    1
    20    19    20    1
    21    20    21    1
    22    21    22    1
    23    22    23    1
    24    23    24    1
    25    24    25    1
    26    25    26    1
    27    12    13   ar
    28    13    14   ar
    29    14    15   ar
    30    15    16   ar
    31    16    17   ar
    32    17    18   ar
    33     6     7    1
    34     7     8    1
    35    30    31    1
    36    31    32    1
    37    37    38   ar
    38    38    39   ar
    39    39    40   ar
    40    40    35   ar
    41    32    27    1
    42     8     3    1
    43    18     9   ar
    44    26    21    1
    45    18    13   ar
    46    34    41    1
    47    34    42    1
@<TRIPOS>MOLECULE
*****
 42 47 0 0 0
SMALL
GASTEIGER

@<TRIPOS>ATOM
      1 C          58.7321   90.6226    5.7860 C.2     1  UNL1        0.2252
      2 O          57.2801   90.9733    5.9226 O.2     1  UNL1       -0.2749
      3 N          59.5594   91.2601    4.7093 N.am    1  UNL1       -0.2794
      4 C          58.9347   92.2482    3.7694 C.3     1  UNL1        0.0953
      5 C          59.7621   92.8857    2.6928 C.3     1  UNL1        0.0442
      6 C          61.2142   92.5350    2.5561 C.3     1  UNL1        0.0933
      7 C          61.8387   91.5469    3.4959 C.3     1  UNL1        0.0442
      8 C          61.0114   90.9094    4.5726 C.3     1  UNL1        0.0953
      9 N          62.0415   93.1725    1.4794 N.ar    1  UNL1       -0.2817
     10 C          61.8401   93.0126    0.0016 C.ar    1  UNL1        0.3315
     11 O          60.7761   92.1871   -0.6590 O.2     1  UNL1       -0.2463
     12 N          62.8897   93.8231   -0.6995 N.ar    1  UNL1       -0.2785
     13 C          63.7396   94.4839    0.3449 C.ar    1  UNL1        0.0797
     14 C          64.9232   95.3998    0.2437 C.ar    1  UNL1        0.0188
     15 C          65.5825   95.9136    1.4892 C.ar    1  UNL1        0.0016
     16 C          65.0583   95.5115    2.8358 C.ar    1  UNL1        0.0016
     17 C          63.8748   94.5956    2.9371 C.ar    1  UNL1        0.0188
     18 C          63.2154   94.0818    1.6916 C.ar    1  UNL1        0.0796
     19 C          63.0594   93.9504   -2.1844 C.3     1  UNL1        0.1278
     20 C          63.9304   92.9798   -2.9257 C.3     1  UNL1        0.0972
     21 N          64.4915   93.3486   -4.2671 N.3     1  UNL1       -0.2668
     22 C          64.7491   92.2831   -5.2909 C.3     1  UNL1        0.1047
     23 C          65.3101   92.6520   -6.6323 C.3     1  UNL1        0.1595
     24 O          65.6136   94.0862   -6.9497 O.3     1  UNL1       -0.3508
     25 C          65.3561   95.1517   -5.9258 C.3     1  UNL1        0.1595
     26 C          64.7950   94.7829   -4.5845 C.3     1  UNL1        0.1047
     27 N          60.6061   87.6582    8.6056 N.3     1  UNL1       -0.2689
     28 C          59.9684   87.1836    7.3334 C.3     1  UNL1        0.0729
     29 C          59.3438   88.1717    6.3935 C.3     1  UNL1        0.0264
     30 C          59.3567   89.6345    6.7258 C.3     1  UNL1        0.0795
     31 C          59.9943   90.1090    7.9979 C.3     1  UNL1        0.0264
     32 C          60.6190   89.1209    8.9378 C.3     1  UNL1        0.0729
     33 C          61.2307   86.6701    9.5455 C.3     1  UNL1        0.0993
     34 N          63.8105   85.6753   13.9449 N.pl3   1  UNL1       -0.3426
     35 C          63.3075   86.6559   12.9273 C.ar    1  UNL1        0.1251
     36 C          62.5206   86.1727   11.7452 C.ar    1  UNL1        0.0310
     37 C          62.0176   87.1533   10.7276 C.ar    1  UNL1       -0.0018
     38 C          62.3014   88.6170   10.8921 C.ar    1  UNL1        0.0179
     39 C          63.0883   89.1001   12.0742 C.ar    1  UNL1        0.1000
     40 N          63.5913   88.1195   13.0918 N.ar    1  UNL1       -0.2296
     41 H          63.6243   84.7147   13.8370 H       1  UNL1        0.1437
     42 H          64.3270   85.9925   14.7208 H       1  UNL1        0.1437
@<TRIPOS>BOND
     1    34    35    1
     2    35    36   ar
     3    36    37   ar
     4    37    33    1
     5    33    27    1
     6    27    28    1
     7    28    29    1
     8    29    30    1
     9    30     1    1
    10     1     2    2
    11     1     3   am
    12     3     4    1
    13     4     5    1
    14     5     6    1
    15     6     9    1
    16     9    10   ar
    17    10    11    2
    18    10    12   ar
    19    12    19    1
    20    19    20    1
    21    20    21    1
    22    21    22    1
    23    22    23    1
    24    23    24    1
    25    24    25    1
    26    25    26    1
    27    12    13   ar
    28    13    14   ar
    29    14    15   ar
    30    15    16   ar
    31    16    17   ar
    32    17    18   ar
    33     6     7    1
    34     7     8    1
    35    30    31    1
    36    31    32    1
    37    37    38   ar
    38    38    39   ar
    39    39    40   ar
    40    40    35   ar
    41    32    27    1
    42     8     3    1
    43    18     9   ar
    44    26    21    1
    45    18    13   ar
    46    34    41    1
    47    34    42    1
@<TRIPOS>MOLECULE
*****
 42 47 0 0 0
SMALL
GASTEIGER

@<TRIPOS>ATOM
      1 C          58.7773   90.6637    5.7620 C.2     1  UNL1        0.2252
      2 O          57.3250   91.0263    5.8569 O.2     1  UNL1       -0.2749
      3 N          59.6412   91.2966    4.7116 N.am    1  UNL1       -0.2794
      4 C          59.0526   92.2920    3.7562 C.3     1  UNL1        0.0953
      5 C          59.9164   92.9248    2.7059 C.3     1  UNL1        0.0442
      6 C          61.3689   92.5623    2.6109 C.3     1  UNL1        0.0933
      7 C          61.9574   91.5669    3.5662 C.3     1  UNL1        0.0442
      8 C          61.0936   90.9340    4.6166 C.3     1  UNL1        0.0953
      9 N          62.2328   93.1951    1.5605 N.ar    1  UNL1       -0.2817
     10 C          62.1321   92.9672    0.0813 C.ar    1  UNL1        0.3315
     11 O          61.1500   92.0665   -0.6072 O.2     1  UNL1       -0.2463
     12 N          63.1861   93.7983   -0.5884 N.ar    1  UNL1       -0.2785
     13 C          63.9381   94.5397    0.4768 C.ar    1  UNL1        0.0797
     14 C          65.0832   95.5062    0.4090 C.ar    1  UNL1        0.0188
     15 C          65.6392   96.0998    1.6693 C.ar    1  UNL1        0.0016
     16 C          65.0500   95.7270    2.9974 C.ar    1  UNL1        0.0016
     17 C          63.9049   94.7606    3.0652 C.ar    1  UNL1        0.0188
     18 C          63.3489   94.1670    1.8049 C.ar    1  UNL1        0.0796
     19 C          63.4430   93.8745   -2.0643 C.3     1  UNL1        0.1278
     20 C          62.6366   94.8072   -2.9188 C.3     1  UNL1        0.0972
     21 N          61.1540   94.9154   -2.7182 N.3     1  UNL1       -0.2668
     22 C          60.5954   95.9677   -1.8068 C.3     1  UNL1        0.1047
     23 C          59.1128   96.0759   -1.6063 C.3     1  UNL1        0.1595
     24 O          58.1889   95.1319   -2.3172 O.3     1  UNL1       -0.3508
     25 C          58.7476   94.0797   -3.2286 C.3     1  UNL1        0.1595
     26 C          60.2302   93.9714   -3.4291 C.3     1  UNL1        0.1047
     27 N          60.5431   87.6775    8.6281 N.3     1  UNL1       -0.2689
     28 C          59.9186   87.2091    7.3471 C.3     1  UNL1        0.0729
     29 C          59.3300   88.2045    6.3918 C.3     1  UNL1        0.0264
     30 C          59.3659   89.6683    6.7174 C.3     1  UNL1        0.0795
     31 C          59.9903   90.1367    7.9982 C.3     1  UNL1        0.0264
     32 C          60.5789   89.1413    8.9536 C.3     1  UNL1        0.0729
     33 C          61.1316   86.6821    9.5835 C.3     1  UNL1        0.0993
     34 N          63.7824   85.6539   13.9327 N.pl3   1  UNL1       -0.3426
     35 C          63.2827   86.6393   12.9182 C.ar    1  UNL1        0.1251
     36 C          62.4570   86.1680   11.7580 C.ar    1  UNL1        0.0310
     37 C          61.9573   87.1535   10.7436 C.ar    1  UNL1       -0.0018
     38 C          62.2832   88.6104   10.8894 C.ar    1  UNL1        0.0179
     39 C          63.1089   89.0817   12.0496 C.ar    1  UNL1        0.1000
     40 N          63.6086   88.0962   13.0640 N.ar    1  UNL1       -0.2296
     41 H          63.5685   84.6977   13.8371 H       1  UNL1        0.1437
     42 H          64.3243   85.9633   14.6942 H       1  UNL1        0.1437
@<TRIPOS>BOND
     1    34    35    1
     2    35    36   ar
     3    36    37   ar
     4    37    33    1
     5    33    27    1
     6    27    28    1
     7    28    29    1
     8    29    30    1
     9    30     1    1
    10     1     2    2
    11     1     3   am
    12     3     4    1
    13     4     5    1
    14     5     6    1
    15     6     9    1
    16     9    10   ar
    17    10    11    2
    18    10    12   ar
    19    12    19    1
    20    19    20    1
    21    20    21    1
    22    21    22    1
    23    22    23    1
    24    23    24    1
    25    24    25    1
    26    25    26    1
    27    12    13   ar
    28    13    14   ar
    29    14    15   ar
    30    15    16   ar
    31    16    17   ar
    32    17    18   ar
    33     6     7    1
    34     7     8    1
    35    30    31    1
    36    31    32    1
    37    37    38   ar
    38    38    39   ar
    39    39    40   ar
    40    40    35   ar
    41    32    27    1
    42     8     3    1
    43    18     9   ar
    44    26    21    1
    45    18    13   ar
    46    34    41    1
    47    34    42    1
@<TRIPOS>MOLECULE
*****
 42 47 0 0 0
SMALL
GASTEIGER

@<TRIPOS>ATOM
      1 C          58.6094   90.6019    5.8468 C.2     1  UNL1        0.2252
      2 O          57.1253   90.8167    5.8143 O.2     1  UNL1       -0.2749
      3 N          59.4781   91.2068    4.7840 N.am    1  UNL1       -0.2794
      4 C          58.8627   92.0265    3.6889 C.3     1  UNL1        0.0953
      5 C          59.7314   92.6314    2.6262 C.3     1  UNL1        0.0442
      6 C          61.2156   92.4167    2.6586 C.3     1  UNL1        0.0933
      7 C          61.8310   91.5970    3.7537 C.3     1  UNL1        0.0442
      8 C          60.9623   90.9921    4.8164 C.3     1  UNL1        0.0953
      9 N          62.0844   93.0216    1.5958 N.ar    1  UNL1       -0.2817
     10 C          61.9563   92.7963    0.1184 C.ar    1  UNL1        0.3315
     11 O          60.9370   91.9265   -0.5557 O.2     1  UNL1       -0.2463
     12 N          63.0264   93.5935   -0.5665 N.ar    1  UNL1       -0.2785
     13 C          63.8159   94.3116    0.4876 C.ar    1  UNL1        0.0797
     14 C          64.9897   95.2416    0.4032 C.ar    1  UNL1        0.0188
     15 C          65.5813   95.8182    1.6552 C.ar    1  UNL1        0.0016
     16 C          64.9991   95.4647    2.9916 C.ar    1  UNL1        0.0016
     17 C          63.8252   94.5347    3.0760 C.ar    1  UNL1        0.0188
     18 C          63.2337   93.9581    1.8240 C.ar    1  UNL1        0.0796
     19 C          63.2652   93.6609   -2.0459 C.3     1  UNL1        0.1278
     20 C          62.4898   94.6309   -2.8873 C.3     1  UNL1        0.0972
     21 N          61.0114   94.7841   -2.6854 N.3     1  UNL1       -0.2668
     22 C          60.4855   95.8575   -1.7793 C.3     1  UNL1        0.1047
     23 C          59.0070   96.0107   -1.5774 C.3     1  UNL1        0.1595
     24 O          58.0546   95.0905   -2.2816 O.3     1  UNL1       -0.3508
     25 C          58.5805   94.0171   -3.1878 C.3     1  UNL1        0.1595
     26 C          60.0589   93.8639   -3.3897 C.3     1  UNL1        0.1047
     27 N          60.4559   88.1429    9.1321 N.3     1  UNL1       -0.2689
     28 C          60.6648   89.6280    9.0990 C.3     1  UNL1        0.0729
     29 C          60.0493   90.4476    8.0038 C.3     1  UNL1        0.0264
     30 C          59.2249   89.7822    6.9419 C.3     1  UNL1        0.0795
     31 C          59.0160   88.2972    6.9751 C.3     1  UNL1        0.0264
     32 C          59.6315   87.4775    8.0702 C.3     1  UNL1        0.0729
     33 C          61.0713   87.3232   10.2273 C.3     1  UNL1        0.0993
     34 N          63.6842   83.0771   11.6914 N.pl3   1  UNL1       -0.3426
     35 C          63.2632   84.0381   10.6194 C.ar    1  UNL1        0.1251
     36 C          62.3777   85.2002   10.9593 C.ar    1  UNL1        0.0310
     37 C          61.9568   86.1612    9.8872 C.ar    1  UNL1       -0.0018
     38 C          62.4212   85.9600    8.4752 C.ar    1  UNL1        0.0179
     39 C          63.3066   84.7979    8.1353 C.ar    1  UNL1        0.1000
     40 N          63.7276   83.8370    9.2074 N.ar    1  UNL1       -0.2296
     41 H          63.3794   83.2091   12.6182 H       1  UNL1        0.1437
     42 H          64.2654   82.3144   11.4683 H       1  UNL1        0.1437
@<TRIPOS>BOND
     1    34    35    1
     2    35    36   ar
     3    36    37   ar
     4    37    33    1
     5    33    27    1
     6    27    28    1
     7    28    29    1
     8    29    30    1
     9    30     1    1
    10     1     2    2
    11     1     3   am
    12     3     4    1
    13     4     5    1
    14     5     6    1
    15     6     9    1
    16     9    10   ar
    17    10    11    2
    18    10    12   ar
    19    12    19    1
    20    19    20    1
    21    20    21    1
    22    21    22    1
    23    22    23    1
    24    23    24    1
    25    24    25    1
    26    25    26    1
    27    12    13   ar
    28    13    14   ar
    29    14    15   ar
    30    15    16   ar
    31    16    17   ar
    32    17    18   ar
    33     6     7    1
    34     7     8    1
    35    30    31    1
    36    31    32    1
    37    37    38   ar
    38    38    39   ar
    39    39    40   ar
    40    40    35   ar
    41    32    27    1
    42     8     3    1
    43    18     9   ar
    44    26    21    1
    45    18    13   ar
    46    34    41    1
    47    34    42    1
@<TRIPOS>MOLECULE
*****
 42 47 0 0 0
SMALL
GASTEIGER

@<TRIPOS>ATOM
      1 C          58.5679   90.5793    5.9046 C.2     1  UNL1        0.2252
      2 O          57.0798   90.7680    5.9125 O.2     1  UNL1       -0.2749
      3 N          59.3947   91.1843    4.8090 N.am    1  UNL1       -0.2794
      4 C          58.7335   91.9778    3.7213 C.3     1  UNL1        0.0953
      5 C          59.5604   92.5827    2.6257 C.3     1  UNL1        0.0442
      6 C          61.0485   92.3941    2.6178 C.3     1  UNL1        0.0933
      7 C          61.7097   91.6006    3.7055 C.3     1  UNL1        0.0442
      8 C          60.8828   90.9957    4.8011 C.3     1  UNL1        0.0953
      9 N          61.8754   92.9990    1.5222 N.ar    1  UNL1       -0.2817
     10 C          61.6518   92.8234    0.0494 C.ar    1  UNL1        0.3315
     11 O          60.5621   92.0120   -0.5864 O.2     1  UNL1       -0.2463
     12 N          62.7093   93.6016   -0.6760 N.ar    1  UNL1       -0.2785
     13 C          63.5864   94.2582    0.3485 C.ar    1  UNL1        0.0797
     14 C          64.7877   95.1471    0.2198 C.ar    1  UNL1        0.0188
     15 C          65.4737   95.6635    1.4497 C.ar    1  UNL1        0.0016
     16 C          64.9583   95.2911    2.8083 C.ar    1  UNL1        0.0016
     17 C          63.7570   94.4022    2.9369 C.ar    1  UNL1        0.0188
     18 C          63.0710   93.8858    1.7071 C.ar    1  UNL1        0.0796
     19 C          62.8627   93.7051   -2.1645 C.3     1  UNL1        0.1278
     20 C          63.9192   92.9048   -2.8671 C.3     1  UNL1        0.0972
     21 N          64.5106   93.4067   -4.1510 N.3     1  UNL1       -0.2668
     22 C          64.9311   92.4349   -5.2133 C.3     1  UNL1        0.1047
     23 C          65.5225   92.9368   -6.4972 C.3     1  UNL1        0.1595
     24 O          65.6932   94.4105   -6.7187 O.3     1  UNL1       -0.3508
     25 C          65.2726   95.3824   -5.6564 C.3     1  UNL1        0.1595
     26 C          64.6813   94.8804   -4.3725 C.3     1  UNL1        0.1047
     27 N          60.5515   88.1988    9.1678 N.3     1  UNL1       -0.2689
     28 C          60.7386   89.6858    9.1045 C.3     1  UNL1        0.0729
     29 C          60.0774   90.4793    8.0168 C.3     1  UNL1        0.0264
     30 C          59.2291   89.7858    6.9924 C.3     1  UNL1        0.0795
     31 C          59.0419   88.2989    7.0556 C.3     1  UNL1        0.0264
     32 C          59.7031   87.5054    8.1433 C.3     1  UNL1        0.0729
     33 C          61.2127   87.4053   10.2555 C.3     1  UNL1        0.0993
     34 N          63.6553   83.0566   11.7123 N.pl3   1  UNL1       -0.3426
     35 C          63.2569   84.0254   10.6386 C.ar    1  UNL1        0.1251
     36 C          62.4340   85.2310   10.9839 C.ar    1  UNL1        0.0310
     37 C          62.0356   86.1997    9.9101 C.ar    1  UNL1       -0.0018
     38 C          62.4601   85.9628    8.4911 C.ar    1  UNL1        0.0179
     39 C          63.2830   84.7571    8.1458 C.ar    1  UNL1        0.1000
     40 N          63.6814   83.7884    9.2195 N.ar    1  UNL1       -0.2296
     41 H          63.3767   83.2120   12.6436 H       1  UNL1        0.1437
     42 H          64.1954   82.2653   11.4856 H       1  UNL1        0.1437
@<TRIPOS>BOND
     1    34    35    1
     2    35    36   ar
     3    36    37   ar
     4    37    33    1
     5    33    27    1
     6    27    28    1
     7    28    29    1
     8    29    30    1
     9    30     1    1
    10     1     2    2
    11     1     3   am
    12     3     4    1
    13     4     5    1
    14     5     6    1
    15     6     9    1
    16     9    10   ar
    17    10    11    2
    18    10    12   ar
    19    12    19    1
    20    19    20    1
    21    20    21    1
    22    21    22    1
    23    22    23    1
    24    23    24    1
    25    24    25    1
    26    25    26    1
    27    12    13   ar
    28    13    14   ar
    29    14    15   ar
    30    15    16   ar
    31    16    17   ar
    32    17    18   ar
    33     6     7    1
    34     7     8    1
    35    30    31    1
    36    31    32    1
    37    37    38   ar
    38    38    39   ar
    39    39    40   ar
    40    40    35   ar
    41    32    27    1
    42     8     3    1
    43    18     9   ar
    44    26    21    1
    45    18    13   ar
    46    34    41    1
    47    34    42    1
@<TRIPOS>MOLECULE
*****
 42 47 0 0 0
SMALL
GASTEIGER

@<TRIPOS>ATOM
      1 C          58.4697   90.0638    6.1551 C.2     1  UNL1        0.2252
      2 O          56.9749   90.1231    6.2650 O.2     1  UNL1       -0.2749
      3 N          59.1818   90.9150    5.1460 N.am    1  UNL1       -0.2794
      4 C          58.3992   91.8256    4.2470 C.3     1  UNL1        0.0953
      5 C          59.1113   92.6769    3.2379 C.3     1  UNL1        0.0442
      6 C          60.6062   92.6176    3.1279 C.3     1  UNL1        0.0933
      7 C          61.3887   91.7070    4.0269 C.3     1  UNL1        0.0442
      8 C          60.6766   90.8557    5.0360 C.3     1  UNL1        0.0953
      9 N          61.3183   93.4689    2.1188 N.ar    1  UNL1       -0.2817
     10 C          60.7237   94.6151    1.3556 C.ar    1  UNL1        0.3315
     11 O          59.3126   95.1113    1.4673 O.2     1  UNL1       -0.2463
     12 N          61.7881   95.1780    0.4609 N.ar    1  UNL1       -0.2785
     13 C          63.0404   94.3796    0.6713 C.ar    1  UNL1        0.0797
     14 C          64.4076   94.4780    0.0621 C.ar    1  UNL1        0.0188
     15 C          65.4845   93.5201    0.4777 C.ar    1  UNL1        0.0016
     16 C          65.1942   92.4638    1.5023 C.ar    1  UNL1        0.0016
     17 C          63.8270   92.3654    2.1115 C.ar    1  UNL1        0.0188
     18 C          62.7501   93.3233    1.6959 C.ar    1  UNL1        0.0796
     19 C          61.6281   96.3359   -0.4791 C.3     1  UNL1        0.1278
     20 C          61.4301   96.0897   -1.9455 C.3     1  UNL1        0.0972
     21 N          62.4442   95.2981   -2.7168 N.3     1  UNL1       -0.2668
     22 C          63.6797   95.9691   -3.2396 C.3     1  UNL1        0.1047
     23 C          64.6938   95.1775   -4.0108 C.3     1  UNL1        0.1595
     24 O          64.4725   93.7149   -4.2592 O.3     1  UNL1       -0.3508
     25 C          63.2371   93.0438   -3.7364 C.3     1  UNL1        0.1595
     26 C          62.2229   93.8355   -2.9652 C.3     1  UNL1        0.1047
     27 N          60.8176   87.3320    8.8522 N.3     1  UNL1       -0.2689
     28 C          60.0695   86.7679    7.6807 C.3     1  UNL1        0.0729
     29 C          59.2868   87.6785    6.7817 C.3     1  UNL1        0.0264
     30 C          59.2523   89.1532    7.0541 C.3     1  UNL1        0.0795
     31 C          60.0004   89.7172    8.2255 C.3     1  UNL1        0.0264
     32 C          60.7830   88.8067    9.1246 C.3     1  UNL1        0.0729
     33 C          61.6002   86.4214    9.7512 C.3     1  UNL1        0.0993
     34 N          63.9367   85.6753   14.3321 N.pl3   1  UNL1       -0.3426
     35 C          63.4568   86.6015   13.2541 C.ar    1  UNL1        0.1251
     36 C          62.7684   86.0484   12.0416 C.ar    1  UNL1        0.0310
     37 C          62.2886   86.9746   10.9637 C.ar    1  UNL1       -0.0018
     38 C          62.4973   88.4539   11.0982 C.ar    1  UNL1        0.0179
     39 C          63.1857   89.0070   12.3107 C.ar    1  UNL1        0.1000
     40 N          63.6655   88.0808   13.3886 N.ar    1  UNL1       -0.2296
     41 H          63.7998   84.7044   14.2439 H       1  UNL1        0.1437
     42 H          64.3885   86.0384   15.1279 H       1  UNL1        0.1437
@<TRIPOS>BOND
     1    34    35    1
     2    35    36   ar
     3    36    37   ar
     4    37    33    1
     5    33    27    1
     6    27    28    1
     7    28    29    1
     8    29    30    1
     9    30     1    1
    10     1     2    2
    11     1     3   am
    12     3     4    1
    13     4     5    1
    14     5     6    1
    15     6     9    1
    16     9    10   ar
    17    10    11    2
    18    10    12   ar
    19    12    19    1
    20    19    20    1
    21    20    21    1
    22    21    22    1
    23    22    23    1
    24    23    24    1
    25    24    25    1
    26    25    26    1
    27    12    13   ar
    28    13    14   ar
    29    14    15   ar
    30    15    16   ar
    31    16    17   ar
    32    17    18   ar
    33     6     7    1
    34     7     8    1
    35    30    31    1
    36    31    32    1
    37    37    38   ar
    38    38    39   ar
    39    39    40   ar
    40    40    35   ar
    41    32    27    1
    42     8     3    1
    43    18     9   ar
    44    26    21    1
    45    18    13   ar
    46    34    41    1
    47    34    42    1
