@<TRIPOS>MOLECULE
*****
 17 18 0 0 0
SMALL
GASTEIGER

@<TRIPOS>ATOM
      1 C          63.8238   83.4369   11.2216 C.ar    1  UNL1        0.1386
      2 C          62.9544   84.2980   12.0891 C.ar    1  UNL1        0.0369
      3 C          62.1295   85.3901   11.4751 C.ar    1  UNL1        0.0046
      4 C          62.1742   85.6212    9.9937 C.ar    1  UNL1        0.0180
      5 C          63.0436   84.7601    9.1263 C.ar    1  UNL1        0.0046
      6 C          63.8684   83.6679    9.7402 C.ar    1  UNL1        0.0369
      7 C          61.3494   86.7133    9.3798 C.ar    1  UNL1        0.0846
      8 C          60.3075   86.3797    8.3536 C.ar    1  UNL1        0.0398
      9 C          59.4826   87.4718    7.7397 C.ar    1  UNL1        0.1022
     10 N          59.6998   88.8976    8.1520 N.ar    1  UNL1       -0.2224
     11 C          60.7417   89.2312    9.1781 C.ar    1  UNL1        0.1989
     12 N          61.5665   88.1391    9.7920 N.ar    1  UNL1       -0.2240
     13 O          64.6486   82.3447   11.8355 O.3     1  UNL1       -0.4755
     14 C          64.1699   81.6504   13.0760 C.3     1  UNL1        0.2054
     15 C          62.8382   80.9601   13.0827 C.3     1  UNL1        0.0473
     16 C          60.4725   80.6449   14.1095 C.3     1  UNL1        0.0001
     17 C          61.7985   81.3461   14.0927 C.3     1  UNL1        0.0038
@<TRIPOS>BOND
     1    16    17    1
     2    17    15    1
     3    15    14    1
     4    14    13    1
     5    13     1    1
     6     1     2   ar
     7     2     3   ar
     8     3     4   ar
     9     4     7    1
    10     7     8   ar
    11     8     9   ar
    12     9    10   ar
    13    10    11   ar
    14    11    12   ar
    15     4     5   ar
    16     5     6   ar
    17     6     1   ar
    18    12     7   ar
@<TRIPOS>MOLECULE
*****
 17 18 0 0 0
SMALL
GASTEIGER

@<TRIPOS>ATOM
      1 C          64.0801   91.1664   12.4360 C.ar    1  UNL1        0.1386
      2 C          63.6408   89.8101   12.9023 C.ar    1  UNL1        0.0369
      3 C          62.8425   88.9258   11.9908 C.ar    1  UNL1        0.0046
      4 C          62.4834   89.3979   10.6131 C.ar    1  UNL1        0.0180
      5 C          62.9226   90.7542   10.1468 C.ar    1  UNL1        0.0046
      6 C          63.7210   91.6384   11.0583 C.ar    1  UNL1        0.0369
      7 C          61.6850   88.5136    9.7016 C.ar    1  UNL1        0.0846
      8 C          62.1076   87.0922    9.4762 C.ar    1  UNL1        0.0398
      9 C          61.3093   86.2080    8.5647 C.ar    1  UNL1        0.1022
     10 N          60.0883   86.7452    7.8787 N.ar    1  UNL1       -0.2224
     11 C          59.6657   88.1666    8.1042 C.ar    1  UNL1        0.1989
     12 N          60.4641   89.0508    9.0156 N.ar    1  UNL1       -0.2240
     13 O          64.8784   92.0506   13.3475 O.3     1  UNL1       -0.4755
     14 C          66.2252   92.5511   12.9166 C.3     1  UNL1        0.2054
     15 C          67.4675   92.0090   13.5589 C.3     1  UNL1        0.0473
     16 C          67.3595   92.7752   16.0391 C.3     1  UNL1        0.0001
     17 C          67.4724   91.6784   15.0220 C.3     1  UNL1        0.0038
@<TRIPOS>BOND
     1    16    17    1
     2    17    15    1
     3    15    14    1
     4    14    13    1
     5    13     1    1
     6     1     2   ar
     7     2     3   ar
     8     3     4   ar
     9     4     7    1
    10     7     8   ar
    11     8     9   ar
    12     9    10   ar
    13    10    11   ar
    14    11    12   ar
    15     4     5   ar
    16     5     6   ar
    17     6     1   ar
    18    12     7   ar
@<TRIPOS>MOLECULE
*****
 17 18 0 0 0
SMALL
GASTEIGER

@<TRIPOS>ATOM
      1 C          62.2097   89.4001   10.4680 C.ar    1  UNL1        0.1386
      2 C          62.5600   88.8829   11.8317 C.ar    1  UNL1        0.0369
      3 C          63.4841   89.6660   12.7164 C.ar    1  UNL1        0.0046
      4 C          64.0580   90.9665   12.2373 C.ar    1  UNL1        0.0180
      5 C          63.7077   91.4837   10.8736 C.ar    1  UNL1        0.0046
      6 C          62.7836   90.7006    9.9890 C.ar    1  UNL1        0.0369
      7 C          64.9821   91.7496   13.1220 C.ar    1  UNL1        0.0846
      8 C          65.3473   91.2232   14.4782 C.ar    1  UNL1        0.0398
      9 C          66.2714   92.0063   15.3629 C.ar    1  UNL1        0.1022
     10 N          66.8303   93.3160   14.8914 N.ar    1  UNL1       -0.2224
     11 C          66.4651   93.8425   13.5352 C.ar    1  UNL1        0.1989
     12 N          65.5410   93.0593   12.6505 N.ar    1  UNL1       -0.2240
     13 O          61.2856   88.6169    9.5833 O.3     1  UNL1       -0.4755
     14 C          60.6899   87.3304   10.0729 C.3     1  UNL1        0.2054
     15 C          61.4767   86.0566    9.9809 C.3     1  UNL1        0.0473
     16 C          62.3613   85.1822    7.6999 C.3     1  UNL1        0.0001
     17 C          62.5867   85.9314    8.9797 C.3     1  UNL1        0.0038
@<TRIPOS>BOND
     1    16    17    1
     2    17    15    1
     3    15    14    1
     4    14    13    1
     5    13     1    1
     6     1     2   ar
     7     2     3   ar
     8     3     4   ar
     9     4     7    1
    10     7     8   ar
    11     8     9   ar
    12     9    10   ar
    13    10    11   ar
    14    11    12   ar
    15     4     5   ar
    16     5     6   ar
    17     6     1   ar
    18    12     7   ar
@<TRIPOS>MOLECULE
*****
 17 18 0 0 0
SMALL
GASTEIGER

@<TRIPOS>ATOM
      1 C          61.6904   88.6009   10.6537 C.ar    1  UNL1        0.1386
      2 C          62.5034   88.4408   11.9041 C.ar    1  UNL1        0.0369
      3 C          63.4699   89.5128   12.3126 C.ar    1  UNL1        0.0046
      4 C          63.6234   90.7447   11.4708 C.ar    1  UNL1        0.0180
      5 C          62.8104   90.9047   10.2205 C.ar    1  UNL1        0.0046
      6 C          61.8439   89.8328    9.8119 C.ar    1  UNL1        0.0369
      7 C          64.5899   91.8166   11.8793 C.ar    1  UNL1        0.0846
      8 C          65.1231   92.7753   10.8563 C.ar    1  UNL1        0.0398
      9 C          66.0896   93.8472   11.2648 C.ar    1  UNL1        0.1022
     10 N          66.5229   93.9604   12.6964 N.ar    1  UNL1       -0.2224
     11 C          65.9897   93.0017   13.7194 C.ar    1  UNL1        0.1989
     12 N          65.0232   91.9298   13.3109 N.ar    1  UNL1       -0.2240
     13 O          60.7239   87.5290   10.2452 O.3     1  UNL1       -0.4755
     14 C          61.0855   86.5713    9.1489 C.3     1  UNL1        0.2054
     15 C          62.5196   86.1910    8.9278 C.3     1  UNL1        0.0473
     16 C          62.0447   84.8441    6.7575 C.3     1  UNL1        0.0001
     17 C          62.8623   85.0674    7.9950 C.3     1  UNL1        0.0038
@<TRIPOS>BOND
     1    16    17    1
     2    17    15    1
     3    15    14    1
     4    14    13    1
     5    13     1    1
     6     1     2   ar
     7     2     3   ar
     8     3     4   ar
     9     4     7    1
    10     7     8   ar
    11     8     9   ar
    12     9    10   ar
    13    10    11   ar
    14    11    12   ar
    15     4     5   ar
    16     5     6   ar
    17     6     1   ar
    18    12     7   ar
@<TRIPOS>MOLECULE
*****
 17 18 0 0 0
SMALL
GASTEIGER

@<TRIPOS>ATOM
      1 C          62.4868   90.2690   11.9172 C.ar    1  UNL1        0.1386
      2 C          62.5640   90.7166   10.4876 C.ar    1  UNL1        0.0369
      3 C          63.6817   91.6119   10.0413 C.ar    1  UNL1        0.0046
      4 C          64.7221   92.0597   11.0246 C.ar    1  UNL1        0.0180
      5 C          64.6449   91.6122   12.4541 C.ar    1  UNL1        0.0046
      6 C          63.5272   90.7168   12.9004 C.ar    1  UNL1        0.0369
      7 C          65.8398   92.9550   10.5783 C.ar    1  UNL1        0.0846
      8 C          67.1016   92.3610   10.0260 C.ar    1  UNL1        0.0398
      9 C          68.2193   93.2564    9.5797 C.ar    1  UNL1        0.1022
     10 N          68.0752   94.7456    9.6856 N.ar    1  UNL1       -0.2224
     11 C          66.8134   95.3396   10.2379 C.ar    1  UNL1        0.1989
     12 N          65.6957   94.4442   10.6842 N.ar    1  UNL1       -0.2240
     13 O          61.3691   89.3737   12.3635 O.3     1  UNL1       -0.4755
     14 C          60.4238   88.7938   11.3535 C.3     1  UNL1        0.2054
     15 C          60.7018   87.4481   10.7520 C.3     1  UNL1        0.0473
     16 C          60.6514   86.2575    8.4433 C.3     1  UNL1        0.0001
     17 C          61.1773   87.3446    9.3331 C.3     1  UNL1        0.0038
@<TRIPOS>BOND
     1    16    17    1
     2    17    15    1
     3    15    14    1
     4    14    13    1
     5    13     1    1
     6     1     2   ar
     7     2     3   ar
     8     3     4   ar
     9     4     7    1
    10     7     8   ar
    11     8     9   ar
    12     9    10   ar
    13    10    11   ar
    14    11    12   ar
    15     4     5   ar
    16     5     6   ar
    17     6     1   ar
    18    12     7   ar
@<TRIPOS>MOLECULE
*****
 17 18 0 0 0
SMALL
GASTEIGER

@<TRIPOS>ATOM
      1 C          62.6364   90.3524   10.9402 C.ar    1  UNL1        0.1386
      2 C          62.6746   89.7483   12.3126 C.ar    1  UNL1        0.0369
      3 C          63.6819   90.2278   13.3153 C.ar    1  UNL1        0.0046
      4 C          64.6510   91.3114   12.9456 C.ar    1  UNL1        0.0180
      5 C          64.6128   91.9154   11.5732 C.ar    1  UNL1        0.0046
      6 C          63.6055   91.4359   10.5705 C.ar    1  UNL1        0.0369
      7 C          65.6582   91.7909   13.9484 C.ar    1  UNL1        0.0846
      8 C          67.1095   91.8657   13.5767 C.ar    1  UNL1        0.0398
      9 C          68.1168   92.3452   14.5795 C.ar    1  UNL1        0.1022
     10 N          67.6728   92.7499   15.9539 N.ar    1  UNL1       -0.2224
     11 C          66.2215   92.6751   16.3255 C.ar    1  UNL1        0.1989
     12 N          65.2142   92.1956   15.3228 N.ar    1  UNL1       -0.2240
     13 O          61.6292   89.8729    9.9374 O.3     1  UNL1       -0.4755
     14 C          61.2366   88.4256    9.9019 C.3     1  UNL1        0.2054
     15 C          62.2620   87.3780    9.5838 C.3     1  UNL1        0.0473
     16 C          62.9312   85.2423    8.2643 C.3     1  UNL1        0.0001
     17 C          61.8725   86.1619    8.7967 C.3     1  UNL1        0.0038
@<TRIPOS>BOND
     1    16    17    1
     2    17    15    1
     3    15    14    1
     4    14    13    1
     5    13     1    1
     6     1     2   ar
     7     2     3   ar
     8     3     4   ar
     9     4     7    1
    10     7     8   ar
    11     8     9   ar
    12     9    10   ar
    13    10    11   ar
    14    11    12   ar
    15     4     5   ar
    16     5     6   ar
    17     6     1   ar
    18    12     7   ar
@<TRIPOS>MOLECULE
*****
 17 18 0 0 0
SMALL
GASTEIGER

@<TRIPOS>ATOM
      1 C          62.1502   88.8558   10.7119 C.ar    1  UNL1        0.1386
      2 C          62.7520   88.4902   12.0364 C.ar    1  UNL1        0.0369
      3 C          63.6420   89.4639   12.7502 C.ar    1  UNL1        0.0046
      4 C          63.9304   90.8033   12.1397 C.ar    1  UNL1        0.0180
      5 C          63.3286   91.1690   10.8153 C.ar    1  UNL1        0.0046
      6 C          62.4385   90.1952   10.1014 C.ar    1  UNL1        0.0369
      7 C          64.8204   91.7770   12.8535 C.ar    1  UNL1        0.0846
      8 C          65.4797   92.8883   12.0917 C.ar    1  UNL1        0.0398
      9 C          66.3698   93.8620   12.8055 C.ar    1  UNL1        0.1022
     10 N          66.6006   93.7245   14.2813 N.ar    1  UNL1       -0.2224
     11 C          65.9414   92.6132   15.0431 C.ar    1  UNL1        0.1989
     12 N          65.0513   91.6395   14.3292 N.ar    1  UNL1       -0.2240
     13 O          61.2601   87.8821    9.9981 O.3     1  UNL1       -0.4755
     14 C          61.2869   86.4293   10.3704 C.3     1  UNL1        0.2054
     15 C          62.3931   85.5475    9.8717 C.3     1  UNL1        0.0473
     16 C          63.9151   83.4698   10.2135 C.3     1  UNL1        0.0001
     17 C          62.9869   84.5064   10.7738 C.3     1  UNL1        0.0038
@<TRIPOS>BOND
     1    16    17    1
     2    17    15    1
     3    15    14    1
     4    14    13    1
     5    13     1    1
     6     1     2   ar
     7     2     3   ar
     8     3     4   ar
     9     4     7    1
    10     7     8   ar
    11     8     9   ar
    12     9    10   ar
    13    10    11   ar
    14    11    12   ar
    15     4     5   ar
    16     5     6   ar
    17     6     1   ar
    18    12     7   ar
@<TRIPOS>MOLECULE
*****
 17 18 0 0 0
SMALL
GASTEIGER

@<TRIPOS>ATOM
      1 C          59.6625   88.2697    7.8461 C.ar    1  UNL1        0.1386
      2 C          60.5404   88.8083    8.9366 C.ar    1  UNL1        0.0369
      3 C          61.4094   87.8770    9.7287 C.ar    1  UNL1        0.0046
      4 C          61.4005   86.4070    9.4303 C.ar    1  UNL1        0.0180
      5 C          60.5226   85.8684    8.3398 C.ar    1  UNL1        0.0046
      6 C          59.6536   86.7998    7.5477 C.ar    1  UNL1        0.0369
      7 C          62.2695   85.4756   10.2224 C.ar    1  UNL1        0.0846
      8 C          62.2150   85.4917   11.7213 C.ar    1  UNL1        0.0398
      9 C          63.0840   84.5603   12.5134 C.ar    1  UNL1        0.1022
     10 N          64.0074   83.6129   11.8067 N.ar    1  UNL1       -0.2224
     11 C          64.0619   83.5969   10.3078 C.ar    1  UNL1        0.1989
     12 N          63.1929   84.5282    9.5157 N.ar    1  UNL1       -0.2240
     13 O          58.7935   89.2011    7.0540 O.3     1  UNL1       -0.4755
     14 C          59.3946   90.0517    5.9746 C.3     1  UNL1        0.2054
     15 C          58.5406   91.0377    5.2339 C.3     1  UNL1        0.0473
     16 C          59.7936   92.4652    3.4612 C.3     1  UNL1        0.0001
     17 C          59.1189   92.3507    4.7960 C.3     1  UNL1        0.0038
@<TRIPOS>BOND
     1    16    17    1
     2    17    15    1
     3    15    14    1
     4    14    13    1
     5    13     1    1
     6     1     2   ar
     7     2     3   ar
     8     3     4   ar
     9     4     7    1
    10     7     8   ar
    11     8     9   ar
    12     9    10   ar
    13    10    11   ar
    14    11    12   ar
    15     4     5   ar
    16     5     6   ar
    17     6     1   ar
    18    12     7   ar
@<TRIPOS>MOLECULE
*****
 17 18 0 0 0
SMALL
GASTEIGER

@<TRIPOS>ATOM
      1 C          62.8211   90.4331   11.1139 C.ar    1  UNL1        0.1386
      2 C          63.8057   91.4764   10.6759 C.ar    1  UNL1        0.0369
      3 C          64.8774   91.9388   11.6180 C.ar    1  UNL1        0.0046
      4 C          64.9645   91.3579   12.9982 C.ar    1  UNL1        0.0180
      5 C          63.9799   90.3146   13.4362 C.ar    1  UNL1        0.0046
      6 C          62.9082   89.8522   12.4940 C.ar    1  UNL1        0.0369
      7 C          66.0362   91.8203   13.9403 C.ar    1  UNL1        0.0846
      8 C          65.6934   92.1485   15.3632 C.ar    1  UNL1        0.0398
      9 C          66.7651   92.6109   16.3053 C.ar    1  UNL1        0.1022
     10 N          68.1796   92.7451   15.8246 N.ar    1  UNL1       -0.2224
     11 C          68.5224   92.4168   14.4017 C.ar    1  UNL1        0.1989
     12 N          67.4507   91.9544   13.4595 N.ar    1  UNL1       -0.2240
     13 O          61.7494   89.9707   10.1717 O.3     1  UNL1       -0.4755
     14 C          61.1954   88.5817   10.2895 C.3     1  UNL1        0.2054
     15 C          61.6148   87.5218    9.3145 C.3     1  UNL1        0.0473
     16 C          59.8796   86.2622    7.8474 C.3     1  UNL1        0.0001
     17 C          60.7351   86.3301    9.0776 C.3     1  UNL1        0.0038
@<TRIPOS>BOND
     1    16    17    1
     2    17    15    1
     3    15    14    1
     4    14    13    1
     5    13     1    1
     6     1     2   ar
     7     2     3   ar
     8     3     4   ar
     9     4     7    1
    10     7     8   ar
    11     8     9   ar
    12     9    10   ar
    13    10    11   ar
    14    11    12   ar
    15     4     5   ar
    16     5     6   ar
    17     6     1   ar
    18    12     7   ar
