@<TRIPOS>MOLECULE
*****
 26 28 0 0 0
SMALL
GASTEIGER

@<TRIPOS>ATOM
      1 C          63.2584   89.4846   16.4872 C.3     1  UNL1        0.0522
      2 C          63.5719   90.0354   15.1277 C.ar    1  UNL1        0.0625
      3 C          64.5159   91.1925   14.9868 C.ar    1  UNL1        0.0522
      4 C          64.8294   91.7434   13.6272 C.ar    1  UNL1        0.1482
      5 C          64.1989   91.1372   12.4087 C.ar    1  UNL1        0.0612
      6 C          63.2548   89.9801   12.5497 C.ar    1  UNL1        0.1374
      7 N          62.9413   89.4293   13.9092 N.ar    1  UNL1       -0.2449
      8 C          62.6242   89.3739   11.3311 C.2     1  UNL1        0.2684
      9 O          62.5351   90.1655   10.0601 O.2     1  UNL1       -0.2681
     10 N          62.0827   87.9760   11.3836 N.am    1  UNL1       -0.2645
     11 H          62.1411   87.4565   12.2178 H       1  UNL1        0.1566
     12 C          61.4520   87.3698   10.1650 C.ar    1  UNL1        0.1367
     13 C          62.2409   86.4318    9.3002 C.ar    1  UNL1        0.0641
     14 C          61.6102   85.8256    8.0817 C.ar    1  UNL1        0.1445
     15 F          62.3991   84.8876    7.2168 F       1  UNL1       -0.2040
     16 C          60.1908   86.1574    7.7280 C.ar    1  UNL1        0.0504
     17 C          59.4020   87.0953    8.5928 C.ar    1  UNL1        0.1026
     18 N          60.0326   87.7015    9.8113 N.ar    1  UNL1       -0.2289
     19 O          65.7736   92.9005   13.4863 O.3     1  UNL1       -0.4518
     20 C          66.2887   93.2874   12.1317 C.ar    1  UNL1        0.1666
     21 C          66.0266   94.6632   11.5945 C.ar    1  UNL1        0.1364
     22 N          66.5417   95.0502   10.2399 N.ar    1  UNL1       -0.2368
     23 C          67.3190   94.0613    9.4226 C.ar    1  UNL1        0.1286
     24 C          67.5811   92.6856    9.9598 C.ar    1  UNL1        0.1623
     25 F          68.3584   91.6967    9.1424 F       1  UNL1       -0.2024
     26 C          67.0659   92.2986   11.3143 C.ar    1  UNL1        0.0703
@<TRIPOS>BOND
     1     1     2    1
     2     2     3   ar
     3     3     4   ar
     4     4    19    1
     5    19    20    1
     6    20    21   ar
     7    21    22   ar
     8    22    23   ar
     9    23    24   ar
    10    24    25    1
    11    24    26   ar
    12     4     5   ar
    13     5     6   ar
    14     6     8    1
    15     8     9    2
    16     8    10   am
    17    10    12    1
    18    12    13   ar
    19    13    14   ar
    20    14    15    1
    21    14    16   ar
    22    16    17   ar
    23    17    18   ar
    24     6     7   ar
    25     7     2   ar
    26    26    20   ar
    27    18    12   ar
    28    10    11    1
@<TRIPOS>MOLECULE
*****
 26 28 0 0 0
SMALL
GASTEIGER

@<TRIPOS>ATOM
      1 C          62.5230   90.6590   10.1273 C.3     1  UNL1        0.0522
      2 C          63.0069   90.1381   11.4481 C.ar    1  UNL1        0.0625
      3 C          63.4783   91.0935   12.5040 C.ar    1  UNL1        0.0522
      4 C          63.9623   90.5726   13.8247 C.ar    1  UNL1        0.1482
      5 C          63.9748   89.0963   14.0896 C.ar    1  UNL1        0.0612
      6 C          63.5034   88.1409   13.0338 C.ar    1  UNL1        0.1374
      7 N          63.0195   88.6618   11.7130 N.ar    1  UNL1       -0.2449
      8 C          63.5160   86.6644   13.2987 C.2     1  UNL1        0.2684
      9 O          64.4195   86.0996   14.3544 O.2     1  UNL1       -0.2681
     10 N          62.6251   85.7530   12.5078 N.am    1  UNL1       -0.2645
     11 H          62.0321   86.1238   11.8149 H       1  UNL1        0.1566
     12 C          62.6376   84.2766   12.7727 C.ar    1  UNL1        0.1367
     13 C          62.8277   83.3128   11.6392 C.ar    1  UNL1        0.0641
     14 C          62.8402   81.8365   11.9041 C.ar    1  UNL1        0.1445
     15 F          63.0302   80.8726   10.7705 F       1  UNL1       -0.2040
     16 C          62.6627   81.3239   13.3026 C.ar    1  UNL1        0.0504
     17 C          62.4726   82.2876   14.4361 C.ar    1  UNL1        0.1026
     18 N          62.4601   83.7640   14.1712 N.ar    1  UNL1       -0.2289
     19 O          64.4337   91.5282   14.8806 O.3     1  UNL1       -0.4518
     20 C          65.8787   91.9260   14.9409 C.ar    1  UNL1        0.1666
     21 C          66.3997   92.6815   16.1275 C.ar    1  UNL1        0.1364
     22 N          67.8447   93.0793   16.1878 N.ar    1  UNL1       -0.2368
     23 C          68.7688   92.7216   15.0616 C.ar    1  UNL1        0.1286
     24 C          68.2477   91.9661   13.8751 C.ar    1  UNL1        0.1623
     25 F          69.1718   91.6084   12.7489 F       1  UNL1       -0.2024
     26 C          66.8027   91.5683   13.8148 C.ar    1  UNL1        0.0703
@<TRIPOS>BOND
     1     1     2    1
     2     2     3   ar
     3     3     4   ar
     4     4    19    1
     5    19    20    1
     6    20    21   ar
     7    21    22   ar
     8    22    23   ar
     9    23    24   ar
    10    24    25    1
    11    24    26   ar
    12     4     5   ar
    13     5     6   ar
    14     6     8    1
    15     8     9    2
    16     8    10   am
    17    10    12    1
    18    12    13   ar
    19    13    14   ar
    20    14    15    1
    21    14    16   ar
    22    16    17   ar
    23    17    18   ar
    24     6     7   ar
    25     7     2   ar
    26    26    20   ar
    27    18    12   ar
    28    10    11    1
@<TRIPOS>MOLECULE
*****
 26 28 0 0 0
SMALL
GASTEIGER

@<TRIPOS>ATOM
      1 C          67.5580   93.0770   15.8024 C.3     1  UNL1        0.0522
      2 C          66.5340   92.4804   14.8829 C.ar    1  UNL1        0.0625
      3 C          66.2483   93.1253   13.5591 C.ar    1  UNL1        0.0522
      4 C          65.2242   92.5287   12.6396 C.ar    1  UNL1        0.1482
      5 C          64.4859   91.2872   13.0439 C.ar    1  UNL1        0.0612
      6 C          64.7716   90.6423   14.3677 C.ar    1  UNL1        0.1374
      7 N          65.7956   91.2389   15.2872 N.ar    1  UNL1       -0.2449
      8 C          64.0333   89.4007   14.7721 C.2     1  UNL1        0.2684
      9 O          62.6320   89.4993   15.2981 O.2     1  UNL1       -0.2681
     10 N          64.6962   88.0607   14.6504 N.am    1  UNL1       -0.2645
     11 H          65.6159   87.9961   14.3051 H       1  UNL1        0.1566
     12 C          63.9578   86.8192   15.0547 C.ar    1  UNL1        0.1367
     13 C          63.8994   85.6446   14.1237 C.ar    1  UNL1        0.0641
     14 C          63.1610   84.4031   14.5281 C.ar    1  UNL1        0.1445
     15 F          63.1025   83.2284   13.5970 F       1  UNL1       -0.2040
     16 C          62.4812   84.3362   15.8635 C.ar    1  UNL1        0.0504
     17 C          62.5397   85.5108   16.7945 C.ar    1  UNL1        0.1026
     18 N          63.2780   86.7523   16.3901 N.ar    1  UNL1       -0.2289
     19 O          64.9386   93.1737   11.3158 O.3     1  UNL1       -0.4518
     20 C          66.0706   93.6332   10.4456 C.ar    1  UNL1        0.1666
     21 C          66.1415   95.0639   10.0005 C.ar    1  UNL1        0.1364
     22 N          67.2736   95.5234    9.1302 N.ar    1  UNL1       -0.2368
     23 C          68.3348   94.5522    8.7051 C.ar    1  UNL1        0.1286
     24 C          68.2639   93.1216    9.1503 C.ar    1  UNL1        0.1623
     25 F          69.3251   92.1503    8.7252 F       1  UNL1       -0.2024
     26 C          67.1318   92.6620   10.0205 C.ar    1  UNL1        0.0703
@<TRIPOS>BOND
     1     1     2    1
     2     2     3   ar
     3     3     4   ar
     4     4    19    1
     5    19    20    1
     6    20    21   ar
     7    21    22   ar
     8    22    23   ar
     9    23    24   ar
    10    24    25    1
    11    24    26   ar
    12     4     5   ar
    13     5     6   ar
    14     6     8    1
    15     8     9    2
    16     8    10   am
    17    10    12    1
    18    12    13   ar
    19    13    14   ar
    20    14    15    1
    21    14    16   ar
    22    16    17   ar
    23    17    18   ar
    24     6     7   ar
    25     7     2   ar
    26    26    20   ar
    27    18    12   ar
    28    10    11    1
@<TRIPOS>MOLECULE
*****
 26 28 0 0 0
SMALL
GASTEIGER

@<TRIPOS>ATOM
      1 C          64.7006   86.2605   15.3439 C.3     1  UNL1        0.0522
      2 C          64.2839   87.4713   14.5627 C.ar    1  UNL1        0.0625
      3 C          64.5788   88.8434   15.0921 C.ar    1  UNL1        0.0522
      4 C          64.1621   90.0542   14.3109 C.ar    1  UNL1        0.1482
      5 C          63.4506   89.8930   13.0003 C.ar    1  UNL1        0.0612
      6 C          63.1558   88.5208   12.4709 C.ar    1  UNL1        0.1374
      7 N          63.5724   87.3100   13.2521 N.ar    1  UNL1       -0.2449
      8 C          62.4442   88.3595   11.1603 C.2     1  UNL1        0.2684
      9 O          62.6328   89.3769   10.0743 O.2     1  UNL1       -0.2681
     10 N          61.5442   87.1808   10.9356 N.am    1  UNL1       -0.2645
     11 H          61.4205   86.5130   11.6484 H       1  UNL1        0.1566
     12 C          60.8327   87.0194    9.6249 C.ar    1  UNL1        0.1367
     13 C          61.2338   85.9225    8.6838 C.ar    1  UNL1        0.0641
     14 C          60.5223   85.7612    7.3733 C.ar    1  UNL1        0.1445
     15 F          60.9234   84.6642    6.4321 F       1  UNL1       -0.2040
     16 C          59.4096   86.6968    7.0038 C.ar    1  UNL1        0.0504
     17 C          59.0085   87.7938    7.9449 C.ar    1  UNL1        0.1026
     18 N          59.7200   87.9551    9.2554 N.ar    1  UNL1       -0.2289
     19 O          64.4569   91.4264   14.8404 O.3     1  UNL1       -0.4518
     20 C          65.8745   91.9099   14.9228 C.ar    1  UNL1        0.1666
     21 C          66.3141   92.7499   16.0852 C.ar    1  UNL1        0.1364
     22 N          67.7317   93.2333   16.1676 N.ar    1  UNL1       -0.2368
     23 C          68.7096   92.8768   15.0875 C.ar    1  UNL1        0.1286
     24 C          68.2700   92.0369   13.9251 C.ar    1  UNL1        0.1623
     25 F          69.2480   91.6804   12.8450 F       1  UNL1       -0.2024
     26 C          66.8524   91.5534   13.8427 C.ar    1  UNL1        0.0703
@<TRIPOS>BOND
     1     1     2    1
     2     2     3   ar
     3     3     4   ar
     4     4    19    1
     5    19    20    1
     6    20    21   ar
     7    21    22   ar
     8    22    23   ar
     9    23    24   ar
    10    24    25    1
    11    24    26   ar
    12     4     5   ar
    13     5     6   ar
    14     6     8    1
    15     8     9    2
    16     8    10   am
    17    10    12    1
    18    12    13   ar
    19    13    14   ar
    20    14    15    1
    21    14    16   ar
    22    16    17   ar
    23    17    18   ar
    24     6     7   ar
    25     7     2   ar
    26    26    20   ar
    27    18    12   ar
    28    10    11    1
@<TRIPOS>MOLECULE
*****
 26 28 0 0 0
SMALL
GASTEIGER

@<TRIPOS>ATOM
      1 C          62.3800   86.8426   18.3432 C.3     1  UNL1        0.0522
      2 C          63.1290   86.9166   17.0457 C.ar    1  UNL1        0.0625
      3 C          63.6833   85.6674   16.4274 C.ar    1  UNL1        0.0522
      4 C          64.4323   85.7415   15.1299 C.ar    1  UNL1        0.1482
      5 C          64.6270   87.0646   14.4507 C.ar    1  UNL1        0.0612
      6 C          64.0727   88.3137   15.0690 C.ar    1  UNL1        0.1374
      7 N          63.3237   88.2397   16.3665 N.ar    1  UNL1       -0.2449
      8 C          64.2674   89.6370   14.3898 C.2     1  UNL1        0.2684
      9 O          63.1358   90.2639   13.6306 O.2     1  UNL1       -0.2681
     10 N          65.5936   90.3332   14.4699 N.am    1  UNL1       -0.2645
     11 H          66.3363   89.9216   14.9683 H       1  UNL1        0.1566
     12 C          65.7883   91.6564   13.7907 C.ar    1  UNL1        0.1367
     13 C          65.3860   91.8295   12.3561 C.ar    1  UNL1        0.0641
     14 C          65.5807   93.1526   11.6770 C.ar    1  UNL1        0.1445
     15 F          65.1783   93.3258   10.2424 F       1  UNL1       -0.2040
     16 C          66.1777   94.3028   12.4325 C.ar    1  UNL1        0.0504
     17 C          66.5800   94.1297   13.8671 C.ar    1  UNL1        0.1026
     18 N          66.3853   92.8065   14.5462 N.ar    1  UNL1       -0.2289
     19 O          64.9866   84.4922   14.5116 O.3     1  UNL1       -0.4518
     20 C          64.0767   83.5493   13.7815 C.ar    1  UNL1        0.1666
     21 C          64.2245   83.3599   12.3008 C.ar    1  UNL1        0.1364
     22 N          63.3146   82.4170   11.5708 N.ar    1  UNL1       -0.2368
     23 C          62.2569   81.6633   12.3215 C.ar    1  UNL1        0.1286
     24 C          62.1092   81.8527   13.8021 C.ar    1  UNL1        0.1623
     25 F          61.0515   81.0991   14.5528 F       1  UNL1       -0.2024
     26 C          63.0191   82.7957   14.5321 C.ar    1  UNL1        0.0703
@<TRIPOS>BOND
     1     1     2    1
     2     2     3   ar
     3     3     4   ar
     4     4    19    1
     5    19    20    1
     6    20    21   ar
     7    21    22   ar
     8    22    23   ar
     9    23    24   ar
    10    24    25    1
    11    24    26   ar
    12     4     5   ar
    13     5     6   ar
    14     6     8    1
    15     8     9    2
    16     8    10   am
    17    10    12    1
    18    12    13   ar
    19    13    14   ar
    20    14    15    1
    21    14    16   ar
    22    16    17   ar
    23    17    18   ar
    24     6     7   ar
    25     7     2   ar
    26    26    20   ar
    27    18    12   ar
    28    10    11    1
@<TRIPOS>MOLECULE
*****
 26 28 0 0 0
SMALL
GASTEIGER

@<TRIPOS>ATOM
      1 C          59.8153   89.0021    7.9536 C.3     1  UNL1        0.0522
      2 C          60.6524   88.7563    9.1738 C.ar    1  UNL1        0.0625
      3 C          60.5408   87.4542    9.9100 C.ar    1  UNL1        0.0522
      4 C          61.3779   87.2084   11.1302 C.ar    1  UNL1        0.1482
      5 C          62.3265   88.2647   11.6142 C.ar    1  UNL1        0.0612
      6 C          62.4381   89.5668   10.8780 C.ar    1  UNL1        0.1374
      7 N          61.6010   89.8126    9.6578 N.ar    1  UNL1       -0.2449
      8 C          63.3867   90.6232   11.3620 C.2     1  UNL1        0.2684
      9 O          63.7966   91.7391   10.4472 O.2     1  UNL1       -0.2681
     10 N          63.9254   90.5636   12.7606 N.am    1  UNL1       -0.2645
     11 H          63.6563   89.8312   13.3609 H       1  UNL1        0.1566
     12 C          64.8741   91.6200   13.2446 C.ar    1  UNL1        0.1367
     13 C          65.3139   91.6330   14.6785 C.ar    1  UNL1        0.0641
     14 C          66.2625   92.6893   15.1625 C.ar    1  UNL1        0.1445
     15 F          66.7024   92.7024   16.5965 F       1  UNL1       -0.2040
     16 C          66.7713   93.7327   14.2124 C.ar    1  UNL1        0.0504
     17 C          66.3314   93.7197   12.7784 C.ar    1  UNL1        0.1026
     18 N          65.3828   92.6633   12.2945 N.ar    1  UNL1       -0.2289
     19 O          61.2663   85.9062   11.8664 O.3     1  UNL1       -0.4518
     20 C          62.4520   84.9918   11.9570 C.ar    1  UNL1        0.1666
     21 C          63.1794   84.8337   13.2593 C.ar    1  UNL1        0.1364
     22 N          64.3651   83.9194   13.3498 N.ar    1  UNL1       -0.2368
     23 C          64.8234   83.1632   12.1381 C.ar    1  UNL1        0.1286
     24 C          64.0960   83.3214   10.8359 C.ar    1  UNL1        0.1623
     25 F          64.5542   82.5652    9.6241 F       1  UNL1       -0.2024
     26 C          62.9103   84.2357   10.7453 C.ar    1  UNL1        0.0703
@<TRIPOS>BOND
     1     1     2    1
     2     2     3   ar
     3     3     4   ar
     4     4    19    1
     5    19    20    1
     6    20    21   ar
     7    21    22   ar
     8    22    23   ar
     9    23    24   ar
    10    24    25    1
    11    24    26   ar
    12     4     5   ar
    13     5     6   ar
    14     6     8    1
    15     8     9    2
    16     8    10   am
    17    10    12    1
    18    12    13   ar
    19    13    14   ar
    20    14    15    1
    21    14    16   ar
    22    16    17   ar
    23    17    18   ar
    24     6     7   ar
    25     7     2   ar
    26    26    20   ar
    27    18    12   ar
    28    10    11    1
@<TRIPOS>MOLECULE
*****
 26 28 0 0 0
SMALL
GASTEIGER

@<TRIPOS>ATOM
      1 C          59.2548   90.3232   11.5207 C.3     1  UNL1        0.0522
      2 C          60.5402   89.5578   11.6304 C.ar    1  UNL1        0.0625
      3 C          60.7174   88.2766   10.8708 C.ar    1  UNL1        0.0522
      4 C          62.0028   87.5112   10.9805 C.ar    1  UNL1        0.1482
      5 C          63.1109   88.0270   11.8499 C.ar    1  UNL1        0.0612
      6 C          62.9337   89.3082   12.6095 C.ar    1  UNL1        0.1374
      7 N          61.6483   90.0736   12.4998 N.ar    1  UNL1       -0.2449
      8 C          64.0419   89.8241   13.4790 C.2     1  UNL1        0.2684
      9 O          64.6074   88.9585   14.5657 O.2     1  UNL1       -0.2681
     10 N          64.5845   91.2055   13.2617 N.am    1  UNL1       -0.2645
     11 H          64.2134   91.7736   12.5484 H       1  UNL1        0.1566
     12 C          65.6927   91.7214   14.1312 C.ar    1  UNL1        0.1367
     13 C          67.1032   91.7322   13.6209 C.ar    1  UNL1        0.0641
     14 C          68.2113   92.2481   14.4903 C.ar    1  UNL1        0.1445
     15 F          69.6219   92.2590   13.9801 F       1  UNL1       -0.2040
     16 C          67.9089   92.7530   15.8700 C.ar    1  UNL1        0.0504
     17 C          66.4985   92.7422   16.3803 C.ar    1  UNL1        0.1026
     18 N          65.3904   92.2263   15.5109 N.ar    1  UNL1       -0.2289
     19 O          62.1799   86.2300   10.2208 O.3     1  UNL1       -0.4518
     20 C          62.7058   85.0108   10.9187 C.ar    1  UNL1        0.1666
     21 C          63.5385   84.0161   10.1656 C.ar    1  UNL1        0.1364
     22 N          64.0644   82.7969   10.8635 N.ar    1  UNL1       -0.2368
     23 C          63.7575   82.5725   12.3146 C.ar    1  UNL1        0.1286
     24 C          62.9248   83.5672   13.0676 C.ar    1  UNL1        0.1623
     25 F          62.6179   83.3427   14.5187 F       1  UNL1       -0.2024
     26 C          62.3989   84.7863   12.3697 C.ar    1  UNL1        0.0703
@<TRIPOS>BOND
     1     1     2    1
     2     2     3   ar
     3     3     4   ar
     4     4    19    1
     5    19    20    1
     6    20    21   ar
     7    21    22   ar
     8    22    23   ar
     9    23    24   ar
    10    24    25    1
    11    24    26   ar
    12     4     5   ar
    13     5     6   ar
    14     6     8    1
    15     8     9    2
    16     8    10   am
    17    10    12    1
    18    12    13   ar
    19    13    14   ar
    20    14    15    1
    21    14    16   ar
    22    16    17   ar
    23    17    18   ar
    24     6     7   ar
    25     7     2   ar
    26    26    20   ar
    27    18    12   ar
    28    10    11    1
@<TRIPOS>MOLECULE
*****
 26 28 0 0 0
SMALL
GASTEIGER

@<TRIPOS>ATOM
      1 C          59.6676   87.9092    8.2993 C.3     1  UNL1        0.0522
      2 C          60.7128   87.5781    9.3230 C.ar    1  UNL1        0.0625
      3 C          61.2401   86.1780    9.4307 C.ar    1  UNL1        0.0522
      4 C          62.2853   85.8470   10.4544 C.ar    1  UNL1        0.1482
      5 C          62.8031   86.9160   11.3704 C.ar    1  UNL1        0.0612
      6 C          62.2758   88.3160   11.2627 C.ar    1  UNL1        0.1374
      7 N          61.2306   88.6471   10.2389 N.ar    1  UNL1       -0.2449
      8 C          62.7936   89.3851   12.1787 C.2     1  UNL1        0.2684
      9 O          62.5156   90.8285   11.8794 O.2     1  UNL1       -0.2681
     10 N          63.5894   89.0109   13.3938 N.am    1  UNL1       -0.2645
     11 H          63.7718   88.0636   13.5902 H       1  UNL1        0.1566
     12 C          64.1072   90.0800   14.3098 C.ar    1  UNL1        0.1367
     13 C          65.3395   90.8515   13.9409 C.ar    1  UNL1        0.0641
     14 C          65.8573   91.9205   14.8569 C.ar    1  UNL1        0.1445
     15 F          67.0897   92.6920   14.4880 F       1  UNL1       -0.2040
     16 C          65.1427   92.2180   16.1418 C.ar    1  UNL1        0.0504
     17 C          63.9104   91.4465   16.5106 C.ar    1  UNL1        0.1026
     18 N          63.3926   90.3775   15.5947 N.ar    1  UNL1       -0.2289
     19 O          62.8126   84.4468   10.5622 O.3     1  UNL1       -0.4518
     20 C          62.6506   83.6807   11.8416 C.ar    1  UNL1        0.1666
     21 C          62.6167   84.4089   13.1526 C.ar    1  UNL1        0.1364
     22 N          62.4546   83.6428   14.4320 N.ar    1  UNL1       -0.2368
     23 C          62.3265   82.1486   14.4004 C.ar    1  UNL1        0.1286
     24 C          62.3604   81.4205   13.0894 C.ar    1  UNL1        0.1623
     25 F          62.2323   79.9263   13.0578 F       1  UNL1       -0.2024
     26 C          62.5225   82.1866   11.8100 C.ar    1  UNL1        0.0703
@<TRIPOS>BOND
     1     1     2    1
     2     2     3   ar
     3     3     4   ar
     4     4    19    1
     5    19    20    1
     6    20    21   ar
     7    21    22   ar
     8    22    23   ar
     9    23    24   ar
    10    24    25    1
    11    24    26   ar
    12     4     5   ar
    13     5     6   ar
    14     6     8    1
    15     8     9    2
    16     8    10   am
    17    10    12    1
    18    12    13   ar
    19    13    14   ar
    20    14    15    1
    21    14    16   ar
    22    16    17   ar
    23    17    18   ar
    24     6     7   ar
    25     7     2   ar
    26    26    20   ar
    27    18    12   ar
    28    10    11    1
@<TRIPOS>MOLECULE
*****
 26 28 0 0 0
SMALL
GASTEIGER

@<TRIPOS>ATOM
      1 C          59.3057   88.1772    7.4372 C.3     1  UNL1        0.0522
      2 C          60.1907   88.2039    8.6480 C.ar    1  UNL1        0.0625
      3 C          60.4600   89.5009    9.3517 C.ar    1  UNL1        0.0522
      4 C          61.3450   89.5276   10.5625 C.ar    1  UNL1        0.1482
      5 C          61.9606   88.2573   11.0697 C.ar    1  UNL1        0.0612
      6 C          61.6914   86.9603   10.3660 C.ar    1  UNL1        0.1374
      7 N          60.8064   86.9336    9.1551 N.ar    1  UNL1       -0.2449
      8 C          62.3071   85.6900   10.8731 C.2     1  UNL1        0.2684
      9 O          63.1433   84.8446    9.9587 O.2     1  UNL1       -0.2681
     10 N          62.0866   85.2650   12.2946 N.am    1  UNL1       -0.2645
     11 H          61.5378   85.8198   12.8948 H       1  UNL1        0.1566
     12 C          62.7023   83.9946   12.8018 C.ar    1  UNL1        0.1367
     13 C          62.4223   82.6956   12.1060 C.ar    1  UNL1        0.0641
     14 C          63.0380   81.4253   12.6132 C.ar    1  UNL1        0.1445
     15 F          62.7581   80.1262   11.9174 F       1  UNL1       -0.2040
     16 C          63.9337   81.4540   13.8161 C.ar    1  UNL1        0.0504
     17 C          64.2136   82.7530   14.5118 C.ar    1  UNL1        0.1026
     18 N          63.5980   84.0233   14.0047 N.ar    1  UNL1       -0.2289
     19 O          61.6142   90.8247   11.2662 O.3     1  UNL1       -0.4518
     20 C          63.0209   91.2099   11.6166 C.ar    1  UNL1        0.1666
     21 C          63.5649   90.9033   12.9805 C.ar    1  UNL1        0.1364
     22 N          64.9716   91.2885   13.3310 N.ar    1  UNL1       -0.2368
     23 C          65.8343   91.9803   12.3174 C.ar    1  UNL1        0.1286
     24 C          65.2904   92.2869   10.9536 C.ar    1  UNL1        0.1623
     25 F          66.1532   92.9787    9.9401 F       1  UNL1       -0.2024
     26 C          63.8837   91.9017   10.6032 C.ar    1  UNL1        0.0703
@<TRIPOS>BOND
     1     1     2    1
     2     2     3   ar
     3     3     4   ar
     4     4    19    1
     5    19    20    1
     6    20    21   ar
     7    21    22   ar
     8    22    23   ar
     9    23    24   ar
    10    24    25    1
    11    24    26   ar
    12     4     5   ar
    13     5     6   ar
    14     6     8    1
    15     8     9    2
    16     8    10   am
    17    10    12    1
    18    12    13   ar
    19    13    14   ar
    20    14    15    1
    21    14    16   ar
    22    16    17   ar
    23    17    18   ar
    24     6     7   ar
    25     7     2   ar
    26    26    20   ar
    27    18    12   ar
    28    10    11    1
