@<TRIPOS>MOLECULE
*****
 32 36 0 0 0
SMALL
GASTEIGER

@<TRIPOS>ATOM
      1 N          64.5043   90.9163   14.1799 N.pl3   1  UNL1       -0.2781
      2 C          64.0140   91.1085   15.5845 C.3     1  UNL1        0.0950
      3 C          63.5486   89.7786   16.0990 C.3     1  UNL1        0.0373
      4 C          63.7514   88.7645   15.0126 C.3     1  UNL1        0.0373
      5 C          64.3420   89.4676   13.8265 C.3     1  UNL1        0.0950
      6 C          63.1692   88.3459   16.3301 C.3     1  UNL1        0.0577
      7 C          66.1698   94.1228   11.4977 C.ar    1  UNL1        0.0937
      8 C          65.3333   93.0205   10.9188 C.ar    1  UNL1        0.1079
      9 N          64.7781   91.9516   11.8129 N.ar    1  UNL1       -0.2119
     10 C          65.0595   91.9852   13.2859 C.ar    1  UNL1        0.2202
     11 N          65.8960   93.0875   13.8648 N.ar    1  UNL1       -0.2119
     12 C          66.4511   94.1563   12.9707 C.ar    1  UNL1        0.1079
     13 O          66.5116   96.6375   10.9413 O.2     1  UNL1       -0.2680
     14 C          66.7249   95.1917   10.6036 C.2     1  UNL1        0.2708
     15 N          67.4934   94.8147    9.3718 N.am    1  UNL1       -0.1934
     16 O          68.0486   95.8835    8.4777 O.3     1  UNL1       -0.2949
     17 H          67.6335   93.8657    9.1501 H       1  UNL1        0.1825
     18 H          67.8226   96.7555    8.8375 H       1  UNL1        0.2414
     19 N          62.6140   87.2770   17.2242 N.3     1  UNL1       -0.2934
     20 H          61.6502   87.1185   16.9303 H       1  UNL1        0.1236
     21 C          63.2750   85.9319   17.2847 C.3     1  UNL1        0.1151
     22 C          63.4156   85.1085   16.0387 C.ar    1  UNL1        0.0749
     23 C          64.4612   85.4593   15.0220 C.ar    1  UNL1        0.0161
     24 C          64.6018   84.6359   13.7761 C.ar    1  UNL1        0.0028
     25 C          63.6968   83.4618   13.5469 C.ar    1  UNL1        0.0199
     26 C          63.8374   82.6385   12.3009 C.ar    1  UNL1        0.0311
     27 C          62.9324   81.4644   12.0717 C.ar    1  UNL1        0.1402
     28 F          63.0730   80.6411   10.8258 F       1  UNL1       -0.2042
     29 C          61.8868   81.1137   13.0885 C.ar    1  UNL1        0.0312
     30 C          61.7462   81.9370   14.3344 C.ar    1  UNL1        0.0214
     31 C          62.6512   83.1111   14.5636 C.ar    1  UNL1        0.0811
     32 N          62.5106   83.9344   15.8095 N.ar    1  UNL1       -0.2483
@<TRIPOS>BOND
     1    13    14    2
     2    14    15   am
     3    15    16    1
     4    14     7    1
     5     7     8   ar
     6     8     9   ar
     7     9    10   ar
     8    10     1    1
     9     1     2    1
    10     3     2    1
    11     3     4    1
    12     4     5    1
    13     4     6    1
    14     6    19    1
    15    19    21    1
    16    21    22    1
    17    22    23   ar
    18    23    24   ar
    19    24    25   ar
    20    25    26   ar
    21    26    27   ar
    22    27    28    1
    23    27    29   ar
    24    29    30   ar
    25    30    31   ar
    26    31    32   ar
    27    10    11   ar
    28    11    12   ar
    29    12     7   ar
    30     5     1    1
    31    32    22   ar
    32     6     3    1
    33    31    25   ar
    34    15    17    1
    35    16    18    1
    36    19    20    1
@<TRIPOS>MOLECULE
*****
 32 36 0 0 0
SMALL
GASTEIGER

@<TRIPOS>ATOM
      1 N          63.6119   87.0065   15.2671 N.pl3   1  UNL1       -0.2781
      2 C          64.2055   88.1406   14.4852 C.3     1  UNL1        0.0950
      3 C          64.0491   89.3937   15.2948 C.3     1  UNL1        0.0373
      4 C          63.3588   89.0340   16.5770 C.3     1  UNL1        0.0373
      5 C          63.0886   87.5586   16.5600 C.3     1  UNL1        0.0950
      6 C          63.7557   90.4561   16.3123 C.3     1  UNL1        0.0577
      7 C          63.4325   82.7032   13.9633 C.ar    1  UNL1        0.0937
      8 C          62.3041   83.2947   14.7551 C.ar    1  UNL1        0.1079
      9 N          62.3640   84.7292   15.1897 N.ar    1  UNL1       -0.2119
     10 C          63.5522   85.5721   14.8325 C.ar    1  UNL1        0.2202
     11 N          64.6806   84.9806   14.0408 N.ar    1  UNL1       -0.2119
     12 C          64.6208   83.5462   13.6062 C.ar    1  UNL1        0.1079
     13 O          63.9302   80.1933   14.4133 O.2     1  UNL1       -0.2680
     14 C          63.3727   81.2688   13.5288 C.2     1  UNL1        0.2708
     15 N          62.7555   80.9099   12.2095 N.am    1  UNL1       -0.1934
     16 O          62.6957   79.4756   11.7749 O.3     1  UNL1       -0.2949
     17 H          62.3896   81.6158   11.6289 H       1  UNL1        0.1825
     18 H          63.0963   78.9141   12.4570 H       1  UNL1        0.2414
     19 N          63.8155   91.8905   16.7469 N.3     1  UNL1       -0.2934
     20 H          63.5866   91.9068   17.7408 H       1  UNL1        0.1236
     21 C          65.0853   92.6718   16.5822 C.3     1  UNL1        0.1151
     22 C          65.9397   92.4668   15.3664 C.ar    1  UNL1        0.0749
     23 C          67.3349   91.9354   15.5112 C.ar    1  UNL1        0.0161
     24 C          68.1892   91.7305   14.2955 C.ar    1  UNL1        0.0028
     25 C          67.6484   92.0568   12.9350 C.ar    1  UNL1        0.0199
     26 C          68.5028   91.8518   11.7192 C.ar    1  UNL1        0.0311
     27 C          67.9619   92.1782   10.3587 C.ar    1  UNL1        0.1402
     28 F          68.8163   91.9732    9.1430 F       1  UNL1       -0.2042
     29 C          66.5666   92.7096   10.2140 C.ar    1  UNL1        0.0312
     30 C          65.7123   92.9146   11.4297 C.ar    1  UNL1        0.0214
     31 C          66.2532   92.5882   12.7902 C.ar    1  UNL1        0.0811
     32 N          65.3988   92.7932   14.0059 N.ar    1  UNL1       -0.2483
@<TRIPOS>BOND
     1    13    14    2
     2    14    15   am
     3    15    16    1
     4    14     7    1
     5     7     8   ar
     6     8     9   ar
     7     9    10   ar
     8    10     1    1
     9     1     2    1
    10     3     2    1
    11     3     4    1
    12     4     5    1
    13     4     6    1
    14     6    19    1
    15    19    21    1
    16    21    22    1
    17    22    23   ar
    18    23    24   ar
    19    24    25   ar
    20    25    26   ar
    21    26    27   ar
    22    27    28    1
    23    27    29   ar
    24    29    30   ar
    25    30    31   ar
    26    31    32   ar
    27    10    11   ar
    28    11    12   ar
    29    12     7   ar
    30     5     1    1
    31    32    22   ar
    32     6     3    1
    33    31    25   ar
    34    15    17    1
    35    16    18    1
    36    19    20    1
@<TRIPOS>MOLECULE
*****
 32 36 0 0 0
SMALL
GASTEIGER

@<TRIPOS>ATOM
      1 N          63.0968   90.6645   11.6250 N.pl3   1  UNL1       -0.2781
      2 C          61.9573   89.7514   11.9683 C.3     1  UNL1        0.0950
      3 C          61.2210   89.4323   10.7010 C.3     1  UNL1        0.0373
      4 C          61.9055   90.1481    9.5745 C.3     1  UNL1        0.0373
      5 C          63.0648   90.9097   10.1455 C.3     1  UNL1        0.0950
      6 C          60.7003   89.2982    9.3007 C.3     1  UNL1        0.0577
      7 C          66.0863   92.3689   14.5246 C.ar    1  UNL1        0.0937
      8 C          66.0457   92.8664   13.1101 C.ar    1  UNL1        0.1079
      9 N          65.0492   92.2982   12.1435 N.ar    1  UNL1       -0.2119
     10 C          64.0933   91.2326   12.5916 C.ar    1  UNL1        0.2202
     11 N          64.1339   90.7351   14.0061 N.ar    1  UNL1       -0.2119
     12 C          65.1304   91.3032   14.9726 C.ar    1  UNL1        0.1079
     13 O          66.7528   93.0098   16.9525 O.2     1  UNL1       -0.2680
     14 C          67.0828   92.9370   15.4911 C.2     1  UNL1        0.2708
     15 N          68.4095   93.4323   14.9962 N.am    1  UNL1       -0.1934
     16 O          69.4060   94.0004   15.9627 O.3     1  UNL1       -0.2949
     17 H          68.6261   93.3845   14.0370 H       1  UNL1        0.1825
     18 H          69.0376   93.9742   16.8597 H       1  UNL1        0.2414
     19 N          59.7037   88.7301    8.3340 N.3     1  UNL1       -0.2934
     20 H          59.9168   89.1321    7.4211 H       1  UNL1        0.1236
     21 C          59.6076   87.2456    8.1417 C.3     1  UNL1        0.1151
     22 C          60.7143   86.3539    8.6217 C.ar    1  UNL1        0.0749
     23 C          61.6400   85.7091    7.6333 C.ar    1  UNL1        0.0161
     24 C          62.7466   84.8174    8.1133 C.ar    1  UNL1        0.0028
     25 C          62.9274   84.5707    9.5818 C.ar    1  UNL1        0.0199
     26 C          64.0340   83.6790   10.0618 C.ar    1  UNL1        0.0311
     27 C          64.2148   83.4323   11.5303 C.ar    1  UNL1        0.1402
     28 F          65.3214   82.5406   12.0104 F       1  UNL1       -0.2042
     29 C          63.2890   84.0772   12.5188 C.ar    1  UNL1        0.0312
     30 C          62.1824   84.9688   12.0387 C.ar    1  UNL1        0.0214
     31 C          62.0016   85.2156   10.5702 C.ar    1  UNL1        0.0811
     32 N          60.8951   86.1072   10.0902 N.ar    1  UNL1       -0.2483
@<TRIPOS>BOND
     1    13    14    2
     2    14    15   am
     3    15    16    1
     4    14     7    1
     5     7     8   ar
     6     8     9   ar
     7     9    10   ar
     8    10     1    1
     9     1     2    1
    10     3     2    1
    11     3     4    1
    12     4     5    1
    13     4     6    1
    14     6    19    1
    15    19    21    1
    16    21    22    1
    17    22    23   ar
    18    23    24   ar
    19    24    25   ar
    20    25    26   ar
    21    26    27   ar
    22    27    28    1
    23    27    29   ar
    24    29    30   ar
    25    30    31   ar
    26    31    32   ar
    27    10    11   ar
    28    11    12   ar
    29    12     7   ar
    30     5     1    1
    31    32    22   ar
    32     6     3    1
    33    31    25   ar
    34    15    17    1
    35    16    18    1
    36    19    20    1
@<TRIPOS>MOLECULE
*****
 32 36 0 0 0
SMALL
GASTEIGER

@<TRIPOS>ATOM
      1 N          63.8614   87.0604   13.6918 N.pl3   1  UNL1       -0.2781
      2 C          63.5254   88.2529   12.8461 C.3     1  UNL1        0.0950
      3 C          63.9726   89.4824   13.5799 C.3     1  UNL1        0.0373
      4 C          64.5850   89.0498   14.8790 C.3     1  UNL1        0.0373
      5 C          64.5163   87.5529   14.9482 C.3     1  UNL1        0.0950
      6 C          64.5137   90.5073   14.5321 C.3     1  UNL1        0.0577
      7 C          63.0477   82.7605   12.6435 C.ar    1  UNL1        0.0937
      8 C          63.6397   83.1083   13.9772 C.ar    1  UNL1        0.1079
      9 N          63.9110   84.5417   14.3266 N.ar    1  UNL1       -0.2119
     10 C          63.5902   85.6272   13.3424 C.ar    1  UNL1        0.2202
     11 N          62.9982   85.2794   12.0087 N.ar    1  UNL1       -0.2119
     12 C          62.7269   83.8461   11.6593 C.ar    1  UNL1        0.1079
     13 O          62.9319   80.8582   10.8779 O.2     1  UNL1       -0.2680
     14 C          62.7765   81.3273   12.2941 C.2     1  UNL1        0.2708
     15 N          62.3498   80.3630   13.3610 N.am    1  UNL1       -0.1934
     16 O          62.0785   78.9297   13.0116 O.3     1  UNL1       -0.2949
     17 H          62.2478   80.6708   14.2906 H       1  UNL1        0.1825
     18 H          62.2250   78.7951   12.0622 H       1  UNL1        0.2414
     19 N          64.7850   91.9406   14.8816 N.3     1  UNL1       -0.2934
     20 H          64.6462   92.0297   15.8881 H       1  UNL1        0.1236
     21 C          66.1216   92.5477   14.5735 C.3     1  UNL1        0.1151
     22 C          66.4193   93.0430   13.1892 C.ar    1  UNL1        0.0749
     23 C          67.0547   92.1271   12.1855 C.ar    1  UNL1        0.0161
     24 C          67.3524   92.6224   10.8013 C.ar    1  UNL1        0.0028
     25 C          67.0147   94.0335   10.4208 C.ar    1  UNL1        0.0199
     26 C          67.3124   94.5288    9.0365 C.ar    1  UNL1        0.0311
     27 C          66.9746   95.9399    8.6561 C.ar    1  UNL1        0.1402
     28 F          67.2723   96.4351    7.2719 F       1  UNL1       -0.2042
     29 C          66.3392   96.8557    9.6599 C.ar    1  UNL1        0.0312
     30 C          66.0415   96.3604   11.0441 C.ar    1  UNL1        0.0214
     31 C          66.3793   94.9493   11.4245 C.ar    1  UNL1        0.0811
     32 N          66.0816   94.4541   12.8087 N.ar    1  UNL1       -0.2483
@<TRIPOS>BOND
     1    13    14    2
     2    14    15   am
     3    15    16    1
     4    14     7    1
     5     7     8   ar
     6     8     9   ar
     7     9    10   ar
     8    10     1    1
     9     1     2    1
    10     3     2    1
    11     3     4    1
    12     4     5    1
    13     4     6    1
    14     6    19    1
    15    19    21    1
    16    21    22    1
    17    22    23   ar
    18    23    24   ar
    19    24    25   ar
    20    25    26   ar
    21    26    27   ar
    22    27    28    1
    23    27    29   ar
    24    29    30   ar
    25    30    31   ar
    26    31    32   ar
    27    10    11   ar
    28    11    12   ar
    29    12     7   ar
    30     5     1    1
    31    32    22   ar
    32     6     3    1
    33    31    25   ar
    34    15    17    1
    35    16    18    1
    36    19    20    1
@<TRIPOS>MOLECULE
*****
 32 36 0 0 0
SMALL
GASTEIGER

@<TRIPOS>ATOM
      1 N          60.9893   87.6791    9.6115 N.pl3   1  UNL1       -0.2781
      2 C          60.2101   86.9614    8.5496 C.3     1  UNL1        0.0950
      3 C          59.6207   87.9909    7.6316 C.3     1  UNL1        0.0373
      4 C          60.0357   89.3448    8.1261 C.3     1  UNL1        0.0373
      5 C          60.8815   89.1522    9.3498 C.3     1  UNL1        0.0950
      6 C          59.1748   89.2244    6.9038 C.3     1  UNL1        0.0577
      7 C          63.2529   85.7513   12.9894 C.ar    1  UNL1        0.0937
      8 C          62.4458   84.9063   12.0488 C.ar    1  UNL1        0.1079
      9 N          61.6912   85.5490   10.9229 N.ar    1  UNL1       -0.2119
     10 C          61.7438   87.0365   10.7375 C.ar    1  UNL1        0.2202
     11 N          62.5509   87.8815   11.6780 N.ar    1  UNL1       -0.2119
     12 C          63.3055   87.2389   12.8039 C.ar    1  UNL1        0.1079
     13 O          65.0352   85.8946   14.8742 O.2     1  UNL1       -0.2680
     14 C          64.0074   85.1087   14.1153 C.2     1  UNL1        0.2708
     15 N          63.7341   83.6802   14.4824 N.am    1  UNL1       -0.1934
     16 O          64.4887   83.0376   15.6083 O.3     1  UNL1       -0.2949
     17 H          63.0596   83.1644   13.9843 H       1  UNL1        0.1825
     18 H          65.1093   83.6786   15.9889 H       1  UNL1        0.2414
     19 N          58.4202   89.8671    5.7778 N.3     1  UNL1       -0.2934
     20 H          57.4281   89.7377    5.9765 H       1  UNL1        0.1236
     21 C          58.6156   91.3240    5.4792 C.3     1  UNL1        0.1151
     22 C          59.6669   91.7544    4.4996 C.ar    1  UNL1        0.0749
     23 C          61.0326   91.1358    4.5450 C.ar    1  UNL1        0.0161
     24 C          62.0838   91.5663    3.5654 C.ar    1  UNL1        0.0028
     25 C          61.7693   92.6152    2.5404 C.ar    1  UNL1        0.0199
     26 C          62.8206   93.0456    1.5607 C.ar    1  UNL1        0.0311
     27 C          62.5061   94.0946    0.5357 C.ar    1  UNL1        0.1402
     28 F          63.5573   94.5250   -0.4439 F       1  UNL1       -0.2042
     29 C          61.1402   94.7132    0.4903 C.ar    1  UNL1        0.0312
     30 C          60.0890   94.2828    1.4699 C.ar    1  UNL1        0.0214
     31 C          60.4036   93.2338    2.4949 C.ar    1  UNL1        0.0811
     32 N          59.3524   92.8034    3.4745 N.ar    1  UNL1       -0.2483
@<TRIPOS>BOND
     1    13    14    2
     2    14    15   am
     3    15    16    1
     4    14     7    1
     5     7     8   ar
     6     8     9   ar
     7     9    10   ar
     8    10     1    1
     9     1     2    1
    10     3     2    1
    11     3     4    1
    12     4     5    1
    13     4     6    1
    14     6    19    1
    15    19    21    1
    16    21    22    1
    17    22    23   ar
    18    23    24   ar
    19    24    25   ar
    20    25    26   ar
    21    26    27   ar
    22    27    28    1
    23    27    29   ar
    24    29    30   ar
    25    30    31   ar
    26    31    32   ar
    27    10    11   ar
    28    11    12   ar
    29    12     7   ar
    30     5     1    1
    31    32    22   ar
    32     6     3    1
    33    31    25   ar
    34    15    17    1
    35    16    18    1
    36    19    20    1
@<TRIPOS>MOLECULE
*****
 32 36 0 0 0
SMALL
GASTEIGER

@<TRIPOS>ATOM
      1 N          61.3962   86.4488    9.9535 N.pl3   1  UNL1       -0.2781
      2 C          61.2056   86.4615   11.4413 C.3     1  UNL1        0.0950
      3 C          62.0463   85.3654   12.0257 C.3     1  UNL1        0.0373
      4 C          62.7566   84.6753   10.8992 C.3     1  UNL1        0.0373
      5 C          62.3549   85.3448    9.6184 C.3     1  UNL1        0.0950
      6 C          62.9672   84.2164   12.3116 C.3     1  UNL1        0.0577
      7 C          59.4365   89.2337    7.0117 C.ar    1  UNL1        0.0937
      8 C          59.3368   87.7493    6.8202 C.ar    1  UNL1        0.1079
      9 N          59.9901   86.8210    7.8008 N.ar    1  UNL1       -0.2119
     10 C          60.7430   87.3771    8.9729 C.ar    1  UNL1        0.2202
     11 N          60.8426   88.8615    9.1645 N.ar    1  UNL1       -0.2119
     12 C          60.1894   89.7898    8.1839 C.ar    1  UNL1        0.1079
     13 O          59.6260   91.0181    5.1330 O.2     1  UNL1       -0.2680
     14 C          58.7832   90.1620    6.0312 C.2     1  UNL1        0.2708
     15 N          57.2872   90.2341    5.9488 N.am    1  UNL1       -0.1934
     16 O          56.6340   91.1624    4.9682 O.3     1  UNL1       -0.2949
     17 H          56.7341   89.6722    6.5383 H       1  UNL1        0.1825
     18 H          57.3164   91.6385    4.4697 H       1  UNL1        0.2414
     19 N          63.6205   83.2880   13.2922 N.3     1  UNL1       -0.2934
     20 H          64.2095   82.6551   12.7510 H       1  UNL1        0.1236
     21 C          64.4763   83.8411   14.3930 C.3     1  UNL1        0.1151
     22 C          64.1423   85.1678   15.0081 C.ar    1  UNL1        0.0749
     23 C          63.4295   85.2250   16.3267 C.ar    1  UNL1        0.0161
     24 C          63.0956   86.5517   16.9417 C.ar    1  UNL1        0.0028
     25 C          63.4744   87.8212   16.2382 C.ar    1  UNL1        0.0199
     26 C          63.1404   89.1479   16.8533 C.ar    1  UNL1        0.0311
     27 C          63.5192   90.4174   16.1498 C.ar    1  UNL1        0.1402
     28 F          63.1853   91.7441   16.7649 F       1  UNL1       -0.2042
     29 C          64.2320   90.3601   14.8312 C.ar    1  UNL1        0.0312
     30 C          64.5660   89.0335   14.2161 C.ar    1  UNL1        0.0214
     31 C          64.1872   87.7640   14.9196 C.ar    1  UNL1        0.0811
     32 N          64.5211   86.4373   14.3046 N.ar    1  UNL1       -0.2483
@<TRIPOS>BOND
     1    13    14    2
     2    14    15   am
     3    15    16    1
     4    14     7    1
     5     7     8   ar
     6     8     9   ar
     7     9    10   ar
     8    10     1    1
     9     1     2    1
    10     3     2    1
    11     3     4    1
    12     4     5    1
    13     4     6    1
    14     6    19    1
    15    19    21    1
    16    21    22    1
    17    22    23   ar
    18    23    24   ar
    19    24    25   ar
    20    25    26   ar
    21    26    27   ar
    22    27    28    1
    23    27    29   ar
    24    29    30   ar
    25    30    31   ar
    26    31    32   ar
    27    10    11   ar
    28    11    12   ar
    29    12     7   ar
    30     5     1    1
    31    32    22   ar
    32     6     3    1
    33    31    25   ar
    34    15    17    1
    35    16    18    1
    36    19    20    1
@<TRIPOS>MOLECULE
*****
 32 36 0 0 0
SMALL
GASTEIGER

@<TRIPOS>ATOM
      1 N          61.3614   92.4582    3.0350 N.pl3   1  UNL1       -0.2781
      2 C          59.9128   92.7098    3.3318 C.3     1  UNL1        0.0950
      3 C          59.4972   91.7807    4.4336 C.3     1  UNL1        0.0373
      4 C          60.6890   90.9549    4.8177 C.3     1  UNL1        0.0373
      5 C          61.8412   91.3735    3.9534 C.3     1  UNL1        0.0950
      6 C          59.3793   90.7541    5.5209 C.3     1  UNL1        0.0577
      7 C          63.8340   94.5841   -0.0661 C.ar    1  UNL1        0.0937
      8 C          62.3382   94.5735   -0.1777 C.ar    1  UNL1        0.1079
      9 N          61.5140   93.8648    0.8560 N.ar    1  UNL1       -0.2119
     10 C          62.1856   93.1669    2.0013 C.ar    1  UNL1        0.2202
     11 N          63.6814   93.1775    2.1129 N.ar    1  UNL1       -0.2119
     12 C          64.5056   93.8861    1.0793 C.ar    1  UNL1        0.1079
     13 O          64.3169   95.1560   -2.5540 O.2     1  UNL1       -0.2680
     14 C          64.6582   95.2928   -1.0998 C.2     1  UNL1        0.2708
     15 N          65.8238   96.1382   -0.6792 N.am    1  UNL1       -0.1934
     16 O          66.6480   96.8468   -1.7129 O.3     1  UNL1       -0.2949
     17 H          66.0478   96.2280    0.2753 H       1  UNL1        0.1825
     18 H          66.2952   96.6539   -2.5956 H       1  UNL1        0.2414
     19 N          58.5551   90.0454    6.5546 N.3     1  UNL1       -0.2934
     20 H          57.5898   90.0650    6.2257 H       1  UNL1        0.1236
     21 C          58.8621   88.6211    6.9113 C.3     1  UNL1        0.1151
     22 C          59.7702   88.3161    8.0656 C.ar    1  UNL1        0.0749
     23 C          60.0044   86.8936    8.4801 C.ar    1  UNL1        0.0161
     24 C          60.9124   86.5886    9.6344 C.ar    1  UNL1        0.0028
     25 C          61.5863   87.7060   10.3741 C.ar    1  UNL1        0.0199
     26 C          62.4944   87.4009   11.5285 C.ar    1  UNL1        0.0311
     27 C          63.1683   88.5183   12.2682 C.ar    1  UNL1        0.1402
     28 F          64.0764   88.2133   13.4225 F       1  UNL1       -0.2042
     29 C          62.9341   89.9408   11.8537 C.ar    1  UNL1        0.0312
     30 C          62.0261   90.2458   10.6994 C.ar    1  UNL1        0.0214
     31 C          61.3522   89.1284    9.9596 C.ar    1  UNL1        0.0811
     32 N          60.4441   89.4335    8.8054 N.ar    1  UNL1       -0.2483
@<TRIPOS>BOND
     1    13    14    2
     2    14    15   am
     3    15    16    1
     4    14     7    1
     5     7     8   ar
     6     8     9   ar
     7     9    10   ar
     8    10     1    1
     9     1     2    1
    10     3     2    1
    11     3     4    1
    12     4     5    1
    13     4     6    1
    14     6    19    1
    15    19    21    1
    16    21    22    1
    17    22    23   ar
    18    23    24   ar
    19    24    25   ar
    20    25    26   ar
    21    26    27   ar
    22    27    28    1
    23    27    29   ar
    24    29    30   ar
    25    30    31   ar
    26    31    32   ar
    27    10    11   ar
    28    11    12   ar
    29    12     7   ar
    30     5     1    1
    31    32    22   ar
    32     6     3    1
    33    31    25   ar
    34    15    17    1
    35    16    18    1
    36    19    20    1
@<TRIPOS>MOLECULE
*****
 32 36 0 0 0
SMALL
GASTEIGER

@<TRIPOS>ATOM
      1 N          64.1392   91.2649   12.1246 N.pl3   1  UNL1       -0.2781
      2 C          63.0574   90.2779   12.4495 C.3     1  UNL1        0.0950
      3 C          62.1915   90.1226   11.2346 C.3     1  UNL1        0.0373
      4 C          62.7381   91.0136   10.1588 C.3     1  UNL1        0.0373
      5 C          63.9419   91.7196   10.7088 C.3     1  UNL1        0.0950
      6 C          61.5225   90.1760    9.8931 C.3     1  UNL1        0.0577
      7 C          67.4035   92.6232   14.9084 C.ar    1  UNL1        0.0937
      8 C          66.0375   92.3170   15.4472 C.ar    1  UNL1        0.1079
      9 N          64.9494   91.8642   14.5192 N.ar    1  UNL1       -0.2119
     10 C          65.2273   91.7176   13.0525 C.ar    1  UNL1        0.2202
     11 N          66.5933   92.0238   12.5137 N.ar    1  UNL1       -0.2119
     12 C          67.6814   92.4766   13.4416 C.ar    1  UNL1        0.1079
     13 O          68.6038   94.5242   16.2105 O.2     1  UNL1       -0.2680
     14 C          68.4916   93.0760   15.8363 C.2     1  UNL1        0.2708
     15 N          69.4675   92.0805   16.3902 N.am    1  UNL1       -0.1934
     16 O          70.5556   92.5332   17.3181 O.3     1  UNL1       -0.2949
     17 H          69.3938   91.1299   16.1446 H       1  UNL1        0.1825
     18 H          70.4861   93.4910   17.4548 H       1  UNL1        0.2414
     19 N          60.4344   89.7232    8.9651 N.3     1  UNL1       -0.2934
     20 H          60.5595   90.2360    8.0923 H       1  UNL1        0.1236
     21 C          60.3137   88.2729    8.6018 C.3     1  UNL1        0.1151
     22 C          60.9888   87.2304    9.4430 C.ar    1  UNL1        0.0749
     23 C          60.6947   87.1456   10.9114 C.ar    1  UNL1        0.0161
     24 C          61.3696   86.1031   11.7525 C.ar    1  UNL1        0.0028
     25 C          62.3387   85.1453   11.1252 C.ar    1  UNL1        0.0199
     26 C          63.0137   84.1027   11.9664 C.ar    1  UNL1        0.0311
     27 C          63.9828   83.1450   11.3391 C.ar    1  UNL1        0.1402
     28 F          64.6578   82.1024   12.1802 F       1  UNL1       -0.2042
     29 C          64.2769   83.2297    9.8706 C.ar    1  UNL1        0.0312
     30 C          63.6019   84.2723    9.0295 C.ar    1  UNL1        0.0214
     31 C          62.6328   85.2300    9.6568 C.ar    1  UNL1        0.0811
     32 N          61.9578   86.2726    8.8157 N.ar    1  UNL1       -0.2483
@<TRIPOS>BOND
     1    13    14    2
     2    14    15   am
     3    15    16    1
     4    14     7    1
     5     7     8   ar
     6     8     9   ar
     7     9    10   ar
     8    10     1    1
     9     1     2    1
    10     3     2    1
    11     3     4    1
    12     4     5    1
    13     4     6    1
    14     6    19    1
    15    19    21    1
    16    21    22    1
    17    22    23   ar
    18    23    24   ar
    19    24    25   ar
    20    25    26   ar
    21    26    27   ar
    22    27    28    1
    23    27    29   ar
    24    29    30   ar
    25    30    31   ar
    26    31    32   ar
    27    10    11   ar
    28    11    12   ar
    29    12     7   ar
    30     5     1    1
    31    32    22   ar
    32     6     3    1
    33    31    25   ar
    34    15    17    1
    35    16    18    1
    36    19    20    1
@<TRIPOS>MOLECULE
*****
 32 36 0 0 0
SMALL
GASTEIGER

@<TRIPOS>ATOM
      1 N          62.7777   86.7031   11.9132 N.pl3   1  UNL1       -0.2781
      2 C          62.1899   87.2278   10.6368 C.3     1  UNL1        0.0950
      3 C          62.3954   88.7134   10.6080 C.3     1  UNL1        0.0373
      4 C          63.1102   89.1069   11.8667 C.3     1  UNL1        0.0373
      5 C          63.3465   87.8645   12.6733 C.3     1  UNL1        0.0950
      6 C          62.7388   90.1521   10.8570 C.3     1  UNL1        0.0577
      7 C          62.8264   82.4006   13.2307 C.ar    1  UNL1        0.0937
      8 C          62.6565   83.4934   14.2441 C.ar    1  UNL1        0.1079
      9 N          62.6403   84.9277   13.8049 N.ar    1  UNL1       -0.2119
     10 C          62.7939   85.2690   12.3524 C.ar    1  UNL1        0.2202
     11 N          62.9638   84.1762   11.3390 N.ar    1  UNL1       -0.2119
     12 C          62.9800   82.7420   11.7782 C.ar    1  UNL1        0.1079
     13 O          64.0394   80.4150   14.3865 O.2     1  UNL1       -0.2680
     14 C          62.8426   80.9665   13.6699 C.2     1  UNL1        0.2708
     15 N          61.6619   80.0837   13.3925 N.am    1  UNL1       -0.1934
     16 O          61.6781   78.6496   13.8316 O.3     1  UNL1       -0.2949
     17 H          60.8764   80.4456   12.9221 H       1  UNL1        0.1825
     18 H          62.5185   78.4570   14.2762 H       1  UNL1        0.2414
     19 N          62.7226   91.5864   10.4179 N.3     1  UNL1       -0.2934
     20 H          62.2556   92.1147   11.1549 H       1  UNL1        0.1236
     21 C          64.0115   92.2961   10.1266 C.3     1  UNL1        0.1151
     22 C          65.1138   92.2970   11.1439 C.ar    1  UNL1        0.0749
     23 C          66.5455   92.2531   10.6985 C.ar    1  UNL1        0.0161
     24 C          67.6477   92.2539   11.7159 C.ar    1  UNL1        0.0028
     25 C          67.3183   92.2988   13.1786 C.ar    1  UNL1        0.0199
     26 C          68.4206   92.2997   14.1959 C.ar    1  UNL1        0.0311
     27 C          68.0912   92.3445   15.6586 C.ar    1  UNL1        0.1402
     28 F          69.1935   92.3454   16.6760 F       1  UNL1       -0.2042
     29 C          66.6595   92.3885   16.1040 C.ar    1  UNL1        0.0312
     30 C          65.5572   92.3876   15.0866 C.ar    1  UNL1        0.0214
     31 C          65.8866   92.3427   13.6239 C.ar    1  UNL1        0.0811
     32 N          64.7844   92.3419   12.6066 N.ar    1  UNL1       -0.2483
@<TRIPOS>BOND
     1    13    14    2
     2    14    15   am
     3    15    16    1
     4    14     7    1
     5     7     8   ar
     6     8     9   ar
     7     9    10   ar
     8    10     1    1
     9     1     2    1
    10     3     2    1
    11     3     4    1
    12     4     5    1
    13     4     6    1
    14     6    19    1
    15    19    21    1
    16    21    22    1
    17    22    23   ar
    18    23    24   ar
    19    24    25   ar
    20    25    26   ar
    21    26    27   ar
    22    27    28    1
    23    27    29   ar
    24    29    30   ar
    25    30    31   ar
    26    31    32   ar
    27    10    11   ar
    28    11    12   ar
    29    12     7   ar
    30     5     1    1
    31    32    22   ar
    32     6     3    1
    33    31    25   ar
    34    15    17    1
    35    16    18    1
    36    19    20    1
