@<TRIPOS>MOLECULE
*****
 28 32 0 0 0
SMALL
GASTEIGER

@<TRIPOS>ATOM
      1 C          64.4961   90.4679   13.0638 C.3     1  UNL1        0.0578
      2 C          63.5352   91.0235   12.0549 C.3     1  UNL1        0.0163
      3 C          62.6980   89.8908   11.5393 C.3     1  UNL1        0.0058
      4 C          63.1415   88.6350   12.2296 C.3     1  UNL1        0.0240
      5 C          63.7606   87.5392   13.0455 C.3     1  UNL1        0.0301
      6 C          63.4206   86.0784   13.0611 C.ar    1  UNL1       -0.0255
      7 C          64.2861   85.3245   14.0268 C.ar    1  UNL1       -0.0046
      8 C          64.1083   83.8447   14.1959 C.ar    1  UNL1       -0.0003
      9 C          63.0650   83.1188   13.3992 C.ar    1  UNL1       -0.0003
     10 C          62.1996   83.8727   12.4335 C.ar    1  UNL1       -0.0042
     11 C          62.3774   85.3524   12.2645 C.ar    1  UNL1       -0.0217
     12 C          61.4165   85.9082   11.2555 C.3     1  UNL1        0.0520
     13 C          61.2615   87.3269   10.7940 C.ar    1  UNL1       -0.0218
     14 C          60.1759   87.4537    9.7667 C.ar    1  UNL1       -0.0042
     15 C          59.8579   88.7939    9.1729 C.ar    1  UNL1       -0.0003
     16 C          60.6256   90.0075    9.6064 C.ar    1  UNL1       -0.0003
     17 C          61.7113   89.8808   10.6337 C.ar    1  UNL1       -0.0046
     18 C          62.0292   88.5405   11.2275 C.ar    1  UNL1       -0.0261
     19 C          64.2527   88.9917   13.1718 C.3     1  UNL1        0.0203
     20 C          67.5693   92.8170   15.3632 C.3     1  UNL1        0.0393
     21 C          66.2828   92.4176   16.0230 C.3     1  UNL1        0.0229
     22 C          65.2584   91.6345   15.2566 C.3     1  UNL1        0.0724
     23 N          65.5205   91.2509   13.8303 N.3     1  UNL1       -0.2739
     24 C          66.8070   91.6504   13.1705 C.3     1  UNL1        0.0724
     25 C          67.8314   92.4334   13.9369 C.3     1  UNL1        0.0229
     26 O          68.5002   95.0958   16.1942 O.co2   1  UNL1       -0.5492
     27 C          68.5937   93.6001   16.1297 C.2     1  UNL1        0.0501
     28 O          69.7114   92.8875   16.8316 O.co2   1  UNL1       -0.5492
@<TRIPOS>UNITY_ATOM_ATTR
26 1
charge -1
@<TRIPOS>BOND
     1    26    27   ar
     2    27    28   ar
     3    27    20    1
     4    20    21    1
     5    21    22    1
     6    22    23    1
     7    23     1    1
     8     1     2    1
     9     2     3    1
    10     4     3    1
    11     4     5    1
    12     5     6    1
    13     6     7   ar
    14     7     8   ar
    15     8     9   ar
    16     9    10   ar
    17    10    11   ar
    18    11    12    1
    19    12    13    1
    20    13    14   ar
    21    14    15   ar
    22    15    16   ar
    23    16    17   ar
    24    17    18   ar
    25     4    19    1
    26    23    24    1
    27    24    25    1
    28    25    20    1
    29    19     1    1
    30    18     4    1
    31    11     6   ar
    32    18    13   ar
@<TRIPOS>MOLECULE
*****
 28 32 0 0 0
SMALL
GASTEIGER

@<TRIPOS>ATOM
      1 C          62.7290   85.0624   12.2759 C.3     1  UNL1        0.0578
      2 C          63.4864   86.0437   13.1204 C.3     1  UNL1        0.0163
      3 C          63.2299   87.4179   12.5770 C.3     1  UNL1        0.0058
      4 C          62.3139   87.2860   11.3964 C.3     1  UNL1        0.0240
      5 C          61.4077   86.8906   10.2684 C.3     1  UNL1        0.0301
      6 C          60.7363   87.7702    9.2557 C.ar    1  UNL1       -0.0255
      7 C          59.9104   86.9677    8.2945 C.ar    1  UNL1       -0.0046
      8 C          59.1536   87.6575    7.1985 C.ar    1  UNL1       -0.0003
      9 C          59.2225   89.1499    7.0638 C.ar    1  UNL1       -0.0003
     10 C          60.0484   89.9524    8.0250 C.ar    1  UNL1       -0.0042
     11 C          60.8052   89.2625    9.1210 C.ar    1  UNL1       -0.0217
     12 C          61.5627   90.2438    9.9656 C.3     1  UNL1        0.0520
     13 C          62.4382   89.9752   11.1536 C.ar    1  UNL1       -0.0218
     14 C          63.0099   91.2448   11.7114 C.ar    1  UNL1       -0.0042
     15 C          63.9160   91.1982   12.9059 C.ar    1  UNL1       -0.0003
     16 C          64.2503   89.8819   13.5426 C.ar    1  UNL1       -0.0003
     17 C          63.6786   88.6122   12.9848 C.ar    1  UNL1       -0.0046
     18 C          62.7725   88.6588   11.7903 C.ar    1  UNL1       -0.0261
     19 C          62.0043   85.8302   11.2103 C.3     1  UNL1        0.0203
     20 C          62.6453   80.5986   12.8396 C.3     1  UNL1        0.0393
     21 C          63.0083   81.1793   11.5051 C.3     1  UNL1        0.0229
     22 C          63.0362   82.6672   11.3171 C.3     1  UNL1        0.0724
     23 N          62.7011   83.5745   12.4638 N.3     1  UNL1       -0.2739
     24 C          62.3382   82.9937   13.7984 C.3     1  UNL1        0.0724
     25 C          62.3103   81.5058   13.9863 C.3     1  UNL1        0.0229
     26 O          62.6030   78.2040   11.8327 O.co2   1  UNL1       -0.5492
     27 C          62.6175   79.1107   13.0275 C.2     1  UNL1        0.0501
     28 O          62.6041   78.5294   14.4102 O.co2   1  UNL1       -0.5492
@<TRIPOS>UNITY_ATOM_ATTR
26 1
charge -1
@<TRIPOS>BOND
     1    26    27   ar
     2    27    28   ar
     3    27    20    1
     4    20    21    1
     5    21    22    1
     6    22    23    1
     7    23     1    1
     8     1     2    1
     9     2     3    1
    10     4     3    1
    11     4     5    1
    12     5     6    1
    13     6     7   ar
    14     7     8   ar
    15     8     9   ar
    16     9    10   ar
    17    10    11   ar
    18    11    12    1
    19    12    13    1
    20    13    14   ar
    21    14    15   ar
    22    15    16   ar
    23    16    17   ar
    24    17    18   ar
    25     4    19    1
    26    23    24    1
    27    24    25    1
    28    25    20    1
    29    19     1    1
    30    18     4    1
    31    11     6   ar
    32    18    13   ar
@<TRIPOS>MOLECULE
*****
 28 32 0 0 0
SMALL
GASTEIGER

@<TRIPOS>ATOM
      1 C          63.5834   90.0336   12.1082 C.3     1  UNL1        0.0578
      2 C          62.6458   90.4949   11.0321 C.3     1  UNL1        0.0163
      3 C          61.9672   89.2863   10.4591 C.3     1  UNL1        0.0058
      4 C          62.4854   88.0779   11.1810 C.3     1  UNL1        0.0240
      5 C          63.1527   87.0457   12.0408 C.3     1  UNL1        0.0301
      6 C          62.9627   85.5577   12.0338 C.ar    1  UNL1       -0.0255
      7 C          63.8289   84.8898   13.0602 C.ar    1  UNL1       -0.0046
      8 C          63.7908   83.3986   13.2179 C.ar    1  UNL1       -0.0003
      9 C          62.8865   82.5754   12.3492 C.ar    1  UNL1       -0.0003
     10 C          62.0203   83.2433   11.3228 C.ar    1  UNL1       -0.0042
     11 C          62.0584   84.7345   11.1651 C.ar    1  UNL1       -0.0217
     12 C          61.1208   85.1959   10.0890 C.3     1  UNL1        0.0520
     13 C          60.8559   86.5944    9.6157 C.ar    1  UNL1       -0.0218
     14 C          59.8395   86.6165    8.5128 C.ar    1  UNL1       -0.0042
     15 C          59.4303   87.9211    7.8960 C.ar    1  UNL1       -0.0003
     16 C          60.0375   89.2037    8.3820 C.ar    1  UNL1       -0.0003
     17 C          61.0540   89.1816    9.4849 C.ar    1  UNL1       -0.0046
     18 C          61.4632   87.8770   10.1017 C.ar    1  UNL1       -0.0261
     19 C          63.4843   88.5397   12.2003 C.3     1  UNL1        0.0203
     20 C          66.2291   92.6686   14.6196 C.3     1  UNL1        0.0393
     21 C          66.0642   92.9490   13.1553 C.3     1  UNL1        0.0229
     22 C          65.1823   92.0707   12.3182 C.3     1  UNL1        0.0724
     23 N          64.4653   90.9119   12.9453 N.3     1  UNL1       -0.2739
     24 C          64.6303   90.6316   14.4097 C.3     1  UNL1        0.0724
     25 C          65.5121   91.5099   15.2468 C.3     1  UNL1        0.0229
     26 O          67.8583   94.6823   14.8222 O.co2   1  UNL1       -0.5492
     27 C          67.1111   93.5469   15.4567 C.2     1  UNL1        0.0501
     28 O          67.2458   93.2900   16.9283 O.co2   1  UNL1       -0.5492
@<TRIPOS>UNITY_ATOM_ATTR
26 1
charge -1
@<TRIPOS>BOND
     1    26    27   ar
     2    27    28   ar
     3    27    20    1
     4    20    21    1
     5    21    22    1
     6    22    23    1
     7    23     1    1
     8     1     2    1
     9     2     3    1
    10     4     3    1
    11     4     5    1
    12     5     6    1
    13     6     7   ar
    14     7     8   ar
    15     8     9   ar
    16     9    10   ar
    17    10    11   ar
    18    11    12    1
    19    12    13    1
    20    13    14   ar
    21    14    15   ar
    22    15    16   ar
    23    16    17   ar
    24    17    18   ar
    25     4    19    1
    26    23    24    1
    27    24    25    1
    28    25    20    1
    29    19     1    1
    30    18     4    1
    31    11     6   ar
    32    18    13   ar
@<TRIPOS>MOLECULE
*****
 28 32 0 0 0
SMALL
GASTEIGER

@<TRIPOS>ATOM
      1 C          62.9954   89.9036   11.4763 C.3     1  UNL1        0.0578
      2 C          63.1742   89.7122   12.9532 C.3     1  UNL1        0.0163
      3 C          64.0875   90.7918   13.4534 C.3     1  UNL1        0.0058
      4 C          64.4732   91.6505   12.2855 C.3     1  UNL1        0.0240
      5 C          64.7036   92.3426   10.9748 C.3     1  UNL1        0.0301
      6 C          65.5434   93.5526   10.6909 C.ar    1  UNL1       -0.0255
      7 C          65.5011   93.9204    9.2373 C.ar    1  UNL1       -0.0046
      8 C          66.2756   95.1049    8.7406 C.ar    1  UNL1       -0.0003
      9 C          67.0925   95.9218    9.6974 C.ar    1  UNL1       -0.0003
     10 C          67.1348   95.5540   11.1509 C.ar    1  UNL1       -0.0042
     11 C          66.3603   94.3695   11.6477 C.ar    1  UNL1       -0.0217
     12 C          66.5391   94.1780   13.1247 C.3     1  UNL1        0.0520
     13 C          65.9452   93.1225   14.0097 C.ar    1  UNL1       -0.0218
     14 C          66.3820   93.2924   15.4345 C.ar    1  UNL1       -0.0042
     15 C          65.8994   92.3376   16.4859 C.ar    1  UNL1       -0.0003
     16 C          64.9800   91.2129   16.1125 C.ar    1  UNL1       -0.0003
     17 C          64.5432   91.0428   14.6875 C.ar    1  UNL1       -0.0046
     18 C          65.0258   91.9976   13.6361 C.ar    1  UNL1       -0.0261
     19 C          63.7982   91.1016   11.0636 C.3     1  UNL1        0.0203
     20 C          60.4903   87.3350    8.7603 C.3     1  UNL1        0.0393
     21 C          60.2822   88.8202    8.7902 C.3     1  UNL1        0.0229
     22 C          61.1173   89.6764    9.6955 C.3     1  UNL1        0.0724
     23 N          62.1604   89.0474   10.5710 N.3     1  UNL1       -0.2739
     24 C          62.3683   87.5622   10.5411 C.3     1  UNL1        0.0724
     25 C          61.5334   86.7060    9.6358 C.3     1  UNL1        0.0229
     26 O          58.1813   86.7297    7.7346 O.co2   1  UNL1       -0.5492
     27 C          59.6552   86.4787    7.8550 C.2     1  UNL1        0.0501
     28 O          60.2941   85.3716    7.0701 O.co2   1  UNL1       -0.5492
@<TRIPOS>UNITY_ATOM_ATTR
26 1
charge -1
@<TRIPOS>BOND
     1    26    27   ar
     2    27    28   ar
     3    27    20    1
     4    20    21    1
     5    21    22    1
     6    22    23    1
     7    23     1    1
     8     1     2    1
     9     2     3    1
    10     4     3    1
    11     4     5    1
    12     5     6    1
    13     6     7   ar
    14     7     8   ar
    15     8     9   ar
    16     9    10   ar
    17    10    11   ar
    18    11    12    1
    19    12    13    1
    20    13    14   ar
    21    14    15   ar
    22    15    16   ar
    23    16    17   ar
    24    17    18   ar
    25     4    19    1
    26    23    24    1
    27    24    25    1
    28    25    20    1
    29    19     1    1
    30    18     4    1
    31    11     6   ar
    32    18    13   ar
@<TRIPOS>MOLECULE
*****
 28 32 0 0 0
SMALL
GASTEIGER

@<TRIPOS>ATOM
      1 C          60.9565   87.7312    9.4295 C.3     1  UNL1        0.0578
      2 C          61.0319   86.2375    9.5432 C.3     1  UNL1        0.0163
      3 C          61.8752   85.9056   10.7384 C.3     1  UNL1        0.0058
      4 C          62.3211   87.1943   11.3633 C.3     1  UNL1        0.0240
      5 C          62.6273   88.5993   11.7901 C.3     1  UNL1        0.0301
      6 C          63.4513   89.0647   12.9540 C.ar    1  UNL1       -0.0255
      7 C          63.5052   90.5621   13.0233 C.ar    1  UNL1       -0.0046
      8 C          64.2804   91.2348   14.1171 C.ar    1  UNL1       -0.0003
      9 C          65.0015   90.4101   15.1417 C.ar    1  UNL1       -0.0003
     10 C          64.9476   88.9127   15.0724 C.ar    1  UNL1       -0.0042
     11 C          64.1725   88.2400   13.9785 C.ar    1  UNL1       -0.0217
     12 C          64.2478   86.7462   14.0922 C.3     1  UNL1        0.0520
     13 C          63.6207   85.7082   13.2096 C.ar    1  UNL1       -0.0218
     14 C          63.9469   84.3210   13.6777 C.ar    1  UNL1       -0.0042
     15 C          63.4156   83.1332   12.9315 C.ar    1  UNL1       -0.0003
     16 C          62.5582   83.3326   11.7170 C.ar    1  UNL1       -0.0003
     17 C          62.2320   84.7198   11.2488 C.ar    1  UNL1       -0.0046
     18 C          62.7632   85.9076   11.9950 C.ar    1  UNL1       -0.0261
     19 C          61.7533   88.3226   10.5544 C.3     1  UNL1        0.0203
     20 C          58.7306   90.0342    6.2685 C.3     1  UNL1        0.0393
     21 C          58.3391   88.6205    6.5818 C.3     1  UNL1        0.0229
     22 C          59.0811   87.8528    7.6355 C.3     1  UNL1        0.0724
     23 N          60.2145   88.4989    8.3758 N.3     1  UNL1       -0.2739
     24 C          60.6059   89.9126    8.0624 C.3     1  UNL1        0.0724
     25 C          59.8640   90.6803    7.0088 C.3     1  UNL1        0.0229
     26 O          56.4887   90.7965    5.1994 O.co2   1  UNL1       -0.5492
     27 C          57.9887   90.8019    5.2148 C.2     1  UNL1        0.0501
     28 O          58.7465   91.5749    4.1765 O.co2   1  UNL1       -0.5492
@<TRIPOS>UNITY_ATOM_ATTR
26 1
charge -1
@<TRIPOS>BOND
     1    26    27   ar
     2    27    28   ar
     3    27    20    1
     4    20    21    1
     5    21    22    1
     6    22    23    1
     7    23     1    1
     8     1     2    1
     9     2     3    1
    10     4     3    1
    11     4     5    1
    12     5     6    1
    13     6     7   ar
    14     7     8   ar
    15     8     9   ar
    16     9    10   ar
    17    10    11   ar
    18    11    12    1
    19    12    13    1
    20    13    14   ar
    21    14    15   ar
    22    15    16   ar
    23    16    17   ar
    24    17    18   ar
    25     4    19    1
    26    23    24    1
    27    24    25    1
    28    25    20    1
    29    19     1    1
    30    18     4    1
    31    11     6   ar
    32    18    13   ar
@<TRIPOS>MOLECULE
*****
 28 32 0 0 0
SMALL
GASTEIGER

@<TRIPOS>ATOM
      1 C          64.2332   90.0245   13.6534 C.3     1  UNL1        0.0578
      2 C          64.0322   90.1081   15.1375 C.3     1  UNL1        0.0163
      3 C          63.6211   88.7511   15.6267 C.3     1  UNL1        0.0058
      4 C          63.5680   87.8288   14.4450 C.3     1  UNL1        0.0240
      5 C          63.5898   87.1225   13.1219 C.3     1  UNL1        0.0301
      6 C          63.2768   85.6863   12.8229 C.ar    1  UNL1       -0.0255
      7 C          63.4208   85.3869   11.3602 C.ar    1  UNL1       -0.0046
      8 C          63.1526   84.0029   10.8480 C.ar    1  UNL1       -0.0003
      9 C          62.7404   82.9182   11.7985 C.ar    1  UNL1       -0.0003
     10 C          62.5963   83.2175   13.2613 C.ar    1  UNL1       -0.0042
     11 C          62.8645   84.6016   13.7735 C.ar    1  UNL1       -0.0217
     12 C          62.6635   84.6852   15.2576 C.3     1  UNL1        0.0520
     13 C          62.8251   85.8741   16.1578 C.ar    1  UNL1       -0.0218
     14 C          62.5249   85.5255   17.5855 C.ar    1  UNL1       -0.0042
     15 C          62.6272   86.5758   18.6515 C.ar    1  UNL1       -0.0003
     16 C          63.0297   87.9747   18.2899 C.ar    1  UNL1       -0.0003
     17 C          63.3299   88.3234   16.8621 C.ar    1  UNL1       -0.0046
     18 C          63.2277   87.2732   15.7961 C.ar    1  UNL1       -0.0261
     19 C          63.9463   88.6157   13.2254 C.3     1  UNL1        0.0203
     20 C          65.4784   93.4061   10.9582 C.3     1  UNL1        0.0393
     21 C          64.4128   92.4477   10.5156 C.3     1  UNL1        0.0229
     22 C          63.9977   91.3205   11.4140 C.3     1  UNL1        0.0724
     23 N          64.6483   91.1517   12.7550 N.3     1  UNL1       -0.2739
     24 C          65.7140   92.1101   13.1976 C.3     1  UNL1        0.0724
     25 C          66.1290   93.2373   12.2992 C.3     1  UNL1        0.0229
     26 O          65.2287   95.8725   10.1808 O.co2   1  UNL1       -0.5492
     27 C          65.8935   94.5333   10.0598 C.2     1  UNL1        0.0501
     28 O          66.9732   94.3214    9.0405 O.co2   1  UNL1       -0.5492
@<TRIPOS>UNITY_ATOM_ATTR
26 1
charge -1
@<TRIPOS>BOND
     1    26    27   ar
     2    27    28   ar
     3    27    20    1
     4    20    21    1
     5    21    22    1
     6    22    23    1
     7    23     1    1
     8     1     2    1
     9     2     3    1
    10     4     3    1
    11     4     5    1
    12     5     6    1
    13     6     7   ar
    14     7     8   ar
    15     8     9   ar
    16     9    10   ar
    17    10    11   ar
    18    11    12    1
    19    12    13    1
    20    13    14   ar
    21    14    15   ar
    22    15    16   ar
    23    16    17   ar
    24    17    18   ar
    25     4    19    1
    26    23    24    1
    27    24    25    1
    28    25    20    1
    29    19     1    1
    30    18     4    1
    31    11     6   ar
    32    18    13   ar
@<TRIPOS>MOLECULE
*****
 28 32 0 0 0
SMALL
GASTEIGER

@<TRIPOS>ATOM
      1 C          63.8239   87.9244   13.7328 C.3     1  UNL1        0.0578
      2 C          64.2487   86.5280   14.0783 C.3     1  UNL1        0.0163
      3 C          63.6977   85.6039   13.0332 C.3     1  UNL1        0.0058
      4 C          62.9324   86.4293   12.0416 C.3     1  UNL1        0.0240
      5 C          62.2385   87.4627   11.2047 C.3     1  UNL1        0.0301
      6 C          61.4446   87.2686    9.9469 C.ar    1  UNL1       -0.0255
      7 C          60.9177   88.5722    9.4247 C.ar    1  UNL1       -0.0046
      8 C          60.0947   88.6003    8.1710 C.ar    1  UNL1       -0.0003
      9 C          59.7987   87.3247    7.4394 C.ar    1  UNL1       -0.0003
     10 C          60.3256   86.0210    7.9616 C.ar    1  UNL1       -0.0042
     11 C          61.1486   85.9929    9.2153 C.ar    1  UNL1       -0.0217
     12 C          61.5733   84.5965    9.5609 C.3     1  UNL1        0.0520
     13 C          62.3990   84.1306   10.7234 C.ar    1  UNL1       -0.0218
     14 C          62.5935   82.6435   10.6966 C.ar    1  UNL1       -0.0042
     15 C          63.3928   81.9721   11.7738 C.ar    1  UNL1       -0.0003
     16 C          63.9976   82.7878   12.8777 C.ar    1  UNL1       -0.0003
     17 C          63.8031   84.2749   12.9046 C.ar    1  UNL1       -0.0046
     18 C          63.0039   84.9463   11.8274 C.ar    1  UNL1       -0.0261
     19 C          63.0104   87.8635   12.4740 C.3     1  UNL1        0.0203
     20 C          64.8160   91.6439   16.0633 C.3     1  UNL1        0.0393
     21 C          65.5243   91.3563   14.7727 C.3     1  UNL1        0.0229
     22 C          65.1936   90.1165   13.9959 C.3     1  UNL1        0.0724
     23 N          64.1546   89.1643   14.5096 N.3     1  UNL1       -0.2739
     24 C          63.4463   89.4520   15.8002 C.3     1  UNL1        0.0724
     25 C          63.7770   90.6917   16.5770 C.3     1  UNL1        0.0229
     26 O          66.5453   93.4259   16.8277 O.co2   1  UNL1       -0.5492
     27 C          65.1467   92.8838   16.8401 C.2     1  UNL1        0.0501
     28 O          64.0789   93.5815   17.6293 O.co2   1  UNL1       -0.5492
@<TRIPOS>UNITY_ATOM_ATTR
26 1
charge -1
@<TRIPOS>BOND
     1    26    27   ar
     2    27    28   ar
     3    27    20    1
     4    20    21    1
     5    21    22    1
     6    22    23    1
     7    23     1    1
     8     1     2    1
     9     2     3    1
    10     4     3    1
    11     4     5    1
    12     5     6    1
    13     6     7   ar
    14     7     8   ar
    15     8     9   ar
    16     9    10   ar
    17    10    11   ar
    18    11    12    1
    19    12    13    1
    20    13    14   ar
    21    14    15   ar
    22    15    16   ar
    23    16    17   ar
    24    17    18   ar
    25     4    19    1
    26    23    24    1
    27    24    25    1
    28    25    20    1
    29    19     1    1
    30    18     4    1
    31    11     6   ar
    32    18    13   ar
@<TRIPOS>MOLECULE
*****
 28 32 0 0 0
SMALL
GASTEIGER

@<TRIPOS>ATOM
      1 C          72.3752   76.1270   13.4937 C.3     1  UNL1        0.0578
      2 C          72.8597   75.9986   14.9074 C.3     1  UNL1        0.0163
      3 C          72.5585   74.6060   15.3760 C.3     1  UNL1        0.0058
      4 C          71.8878   73.8736   14.2518 C.3     1  UNL1        0.0240
      5 C          71.2456   73.3718   12.9926 C.3     1  UNL1        0.0301
      6 C          70.6755   72.0134   12.7104 C.ar    1  UNL1       -0.0255
      7 C          70.1258   71.9283   11.3174 C.ar    1  UNL1       -0.0046
      8 C          69.5074   70.6508   10.8320 C.ar    1  UNL1       -0.0003
      9 C          69.4388   69.4585   11.7395 C.ar    1  UNL1       -0.0003
     10 C          69.9885   69.5436   13.1325 C.ar    1  UNL1       -0.0042
     11 C          70.6069   70.8211   13.6180 C.ar    1  UNL1       -0.0217
     12 C          71.0914   70.6928   15.0318 C.3     1  UNL1        0.0520
     13 C          71.7641   71.7250   15.8873 C.ar    1  UNL1       -0.0218
     14 C          72.0873   71.1831   17.2481 C.ar    1  UNL1       -0.0042
     15 C          72.7650   72.0567   18.2618 C.ar    1  UNL1       -0.0003
     16 C          73.1194   73.4722   17.9147 C.ar    1  UNL1       -0.0003
     17 C          72.7962   74.0142   16.5538 C.ar    1  UNL1       -0.0046
     18 C          72.1186   73.1406   15.5401 C.ar    1  UNL1       -0.0261
     19 C          71.7746   74.8136   13.0885 C.3     1  UNL1        0.0203
     20 C          72.6717   79.8063   10.9197 C.3     1  UNL1        0.0393
     21 C          73.1369   78.4818   10.3912 C.3     1  UNL1        0.0229
     22 C          73.0381   77.2553   11.2492 C.3     1  UNL1        0.0724
     23 N          72.4741   77.3534   12.6357 N.3     1  UNL1       -0.2739
     24 C          72.0089   78.6780   13.1642 C.3     1  UNL1        0.0724
     25 C          72.1077   79.9043   12.3062 C.3     1  UNL1        0.0229
     26 O          72.0790   82.2970   10.4781 O.co2   1  UNL1       -0.5492
     27 C          72.7706   81.0327   10.0617 C.2     1  UNL1        0.0501
     28 O          73.5609   80.9949    8.7875 O.co2   1  UNL1       -0.5492
@<TRIPOS>UNITY_ATOM_ATTR
26 1
charge -1
@<TRIPOS>BOND
     1    26    27   ar
     2    27    28   ar
     3    27    20    1
     4    20    21    1
     5    21    22    1
     6    22    23    1
     7    23     1    1
     8     1     2    1
     9     2     3    1
    10     4     3    1
    11     4     5    1
    12     5     6    1
    13     6     7   ar
    14     7     8   ar
    15     8     9   ar
    16     9    10   ar
    17    10    11   ar
    18    11    12    1
    19    12    13    1
    20    13    14   ar
    21    14    15   ar
    22    15    16   ar
    23    16    17   ar
    24    17    18   ar
    25     4    19    1
    26    23    24    1
    27    24    25    1
    28    25    20    1
    29    19     1    1
    30    18     4    1
    31    11     6   ar
    32    18    13   ar
@<TRIPOS>MOLECULE
*****
 28 32 0 0 0
SMALL
GASTEIGER

@<TRIPOS>ATOM
      1 C          45.2870   75.6574   17.9338 C.3     1  UNL1        0.0578
      2 C          45.4811   75.8364   19.4103 C.3     1  UNL1        0.0163
      3 C          45.3377   77.2963   19.7231 C.3     1  UNL1        0.0058
      4 C          45.0550   78.0197   18.4398 C.3     1  UNL1        0.0240
      5 C          44.7873   78.4994   17.0441 C.3     1  UNL1        0.0301
      6 C          44.5357   79.8995   16.5683 C.ar    1  UNL1       -0.0255
      7 C          44.3119   79.9427   15.0858 C.ar    1  UNL1       -0.0046
      8 C          44.0419   81.2522   14.4059 C.ar    1  UNL1       -0.0003
      9 C          43.9957   82.5185   15.2086 C.ar    1  UNL1       -0.0003
     10 C          44.2195   82.4754   16.6911 C.ar    1  UNL1       -0.0042
     11 C          44.4895   81.1659   17.3710 C.ar    1  UNL1       -0.0217
     12 C          44.6836   81.3447   18.8476 C.3     1  UNL1        0.0520
     13 C          44.9718   80.3016   19.8863 C.ar    1  UNL1       -0.0218
     14 C          45.0942   80.9079   21.2528 C.ar    1  UNL1       -0.0042
     15 C          45.3820   80.0344   22.4378 C.ar    1  UNL1       -0.0003
     16 C          45.5472   78.5547   22.2563 C.ar    1  UNL1       -0.0003
     17 C          45.4248   77.9484   20.8898 C.ar    1  UNL1       -0.0046
     18 C          45.1371   78.8218   19.7047 C.ar    1  UNL1       -0.0261
     19 C          45.0237   77.0068   17.3339 C.3     1  UNL1        0.0203
     20 C          45.4638   71.7571   15.6962 C.3     1  UNL1        0.0393
     21 C          45.4653   71.7620   17.1962 C.3     1  UNL1        0.0229
     22 C          45.4064   73.0621   17.9420 C.3     1  UNL1        0.0724
     23 N          45.3459   74.3573   17.1879 N.3     1  UNL1       -0.2739
     24 C          45.3444   74.3524   15.6879 C.3     1  UNL1        0.0724
     25 C          45.4033   73.0524   14.9421 C.3     1  UNL1        0.0229
     26 O          44.7328   70.2805   13.6875 O.co2   1  UNL1       -0.5492
     27 C          45.5227   70.4570   14.9503 C.2     1  UNL1        0.0501
     28 O          46.3715   69.3336   15.4673 O.co2   1  UNL1       -0.5492
@<TRIPOS>UNITY_ATOM_ATTR
26 1
charge -1
@<TRIPOS>BOND
     1    26    27   ar
     2    27    28   ar
     3    27    20    1
     4    20    21    1
     5    21    22    1
     6    22    23    1
     7    23     1    1
     8     1     2    1
     9     2     3    1
    10     4     3    1
    11     4     5    1
    12     5     6    1
    13     6     7   ar
    14     7     8   ar
    15     8     9   ar
    16     9    10   ar
    17    10    11   ar
    18    11    12    1
    19    12    13    1
    20    13    14   ar
    21    14    15   ar
    22    15    16   ar
    23    16    17   ar
    24    17    18   ar
    25     4    19    1
    26    23    24    1
    27    24    25    1
    28    25    20    1
    29    19     1    1
    30    18     4    1
    31    11     6   ar
    32    18    13   ar
