@<TRIPOS>MOLECULE
*****
 32 35 0 0 0
SMALL
GASTEIGER

@<TRIPOS>ATOM
      1 C          64.7230   91.3842   12.8617 C.ar    1  UNL1        0.0667
      2 C          64.8370   90.1066   13.6394 C.ar    1  UNL1        0.0304
      3 C          63.7863   89.0456   13.4971 C.ar    1  UNL1        0.0942
      4 CL         63.9003   87.7681   14.2747 Cl      1  UNL1       -0.0790
      5 C          62.6215   89.2622   12.5771 C.ar    1  UNL1        0.1663
      6 C          62.5074   90.5399   11.7994 C.ar    1  UNL1        0.0942
      7 CL         61.3427   90.7564   10.8795 Cl      1  UNL1       -0.0790
      8 C          63.5582   91.6008   11.9417 C.ar    1  UNL1        0.0304
      9 N          65.7737   92.4452   13.0040 N.pl3   1  UNL1       -0.2149
     10 H          66.2415   92.5627   13.8623 H       1  UNL1        0.1737
     11 O          66.6278   94.3741   12.7805 O.2     1  UNL1       -0.1499
     12 S          66.1118   93.3270   11.8386 S.O2    1  UNL1        0.0744
     13 O          65.5957   92.2800   10.8967 O.2     1  UNL1       -0.1499
     14 C          66.4498   94.2088   10.6732 C.ar    1  UNL1        0.1357
     15 C          65.7414   95.5189   10.4937 C.ar    1  UNL1        0.0219
     16 C          66.0794   96.4007    9.3283 C.ar    1  UNL1        0.0128
     17 C          67.1257   95.9725    8.3424 C.ar    1  UNL1        0.0586
     18 CL         67.4637   96.8543    7.1771 Cl      1  UNL1       -0.0822
     19 C          67.8340   94.6626    8.5219 C.ar    1  UNL1        0.0241
     20 C          67.4961   93.7807    9.6874 C.ar    1  UNL1        0.0773
     21 CL         68.2044   92.4707    9.8669 Cl      1  UNL1       -0.0808
     22 O          61.5707   88.2013   12.4348 O.3     1  UNL1       -0.4502
     23 C          61.3106   87.5782   11.0953 C.ar    1  UNL1        0.1645
     24 C          60.0148   87.8386   10.3860 C.ar    1  UNL1        0.1362
     25 N          59.7546   87.2156    9.0466 N.ar    1  UNL1       -0.2406
     26 C          60.7902   86.3322    8.4163 C.ar    1  UNL1        0.0815
     27 C          60.5301   85.7092    7.0769 C.ar    1  UNL1        0.0191
     28 C          61.5657   84.8259    6.4467 C.ar    1  UNL1        0.0015
     29 C          62.8615   84.5655    7.1560 C.ar    1  UNL1        0.0001
     30 C          63.1217   85.1885    8.4955 C.ar    1  UNL1        0.0016
     31 C          62.0861   86.0718    9.1256 C.ar    1  UNL1        0.0207
     32 C          62.3462   86.6949   10.4651 C.ar    1  UNL1        0.0406
@<TRIPOS>BOND
     1    11    12    2
     2    12    13    2
     3    12     9    1
     4     9     1    1
     5     1     2   ar
     6     2     3   ar
     7     3     4    1
     8     3     5   ar
     9     5    22    1
    10    22    23    1
    11    23    24   ar
    12    24    25   ar
    13    25    26   ar
    14    26    27   ar
    15    27    28   ar
    16    28    29   ar
    17    29    30   ar
    18    30    31   ar
    19    31    32   ar
    20     5     6   ar
    21     6     7    1
    22     6     8   ar
    23    12    14    1
    24    14    15   ar
    25    15    16   ar
    26    16    17   ar
    27    17    18    1
    28    17    19   ar
    29    19    20   ar
    30    20    21    1
    31     8     1   ar
    32    20    14   ar
    33    32    23   ar
    34    31    26   ar
    35     9    10    1
@<TRIPOS>MOLECULE
*****
 32 35 0 0 0
SMALL
GASTEIGER

@<TRIPOS>ATOM
      1 C          63.6159   85.4243   15.3463 C.ar    1  UNL1        0.0667
      2 C          63.3963   86.2769   16.5607 C.ar    1  UNL1        0.0304
      3 C          63.2445   87.7623   16.4168 C.ar    1  UNL1        0.0942
      4 CL         63.0249   88.6149   17.6312 Cl      1  UNL1       -0.0790
      5 C          63.3124   88.3950   15.0585 C.ar    1  UNL1        0.1663
      6 C          63.5320   87.5424   13.8441 C.ar    1  UNL1        0.0942
      7 CL         63.5999   88.1752   12.4858 Cl      1  UNL1       -0.0790
      8 C          63.6838   86.0571   13.9880 C.ar    1  UNL1        0.0304
      9 N          63.7676   83.9390   15.4902 N.pl3   1  UNL1       -0.2149
     10 H          64.0091   83.5510   16.3623 H       1  UNL1        0.1737
     11 O          62.0691   83.1140   14.5235 O.2     1  UNL1       -0.1499
     12 S          63.5515   83.0447   14.3054 S.O2    1  UNL1        0.0744
     13 O          65.0340   82.9755   14.0874 O.2     1  UNL1       -0.1499
     14 C          63.3355   82.1505   13.1207 C.ar    1  UNL1        0.1357
     15 C          62.9497   80.7154   13.3247 C.ar    1  UNL1        0.0219
     16 C          62.7336   79.8212   12.1399 C.ar    1  UNL1        0.0128
     17 C          62.9034   80.3620   10.7512 C.ar    1  UNL1        0.0586
     18 CL         62.6874   79.4678    9.5664 Cl      1  UNL1       -0.0822
     19 C          63.2892   81.7971   10.5472 C.ar    1  UNL1        0.0241
     20 C          63.5053   82.6914   11.7319 C.ar    1  UNL1        0.0773
     21 CL         63.8911   84.1264   11.5279 Cl      1  UNL1       -0.0808
     22 O          63.1606   89.8804   14.9146 O.3     1  UNL1       -0.4502
     23 C          64.3060   90.7877   15.2540 C.ar    1  UNL1        0.1645
     24 C          64.1912   91.7416   16.4060 C.ar    1  UNL1        0.1362
     25 N          65.3365   92.6488   16.7454 N.ar    1  UNL1       -0.2406
     26 C          66.5966   92.6022   15.9328 C.ar    1  UNL1        0.0815
     27 C          67.7418   93.5095   16.2722 C.ar    1  UNL1        0.0191
     28 C          69.0018   93.4628   15.4597 C.ar    1  UNL1        0.0015
     29 C          69.1165   92.5089   14.3078 C.ar    1  UNL1        0.0001
     30 C          67.9713   91.6017   13.9684 C.ar    1  UNL1        0.0016
     31 C          66.7113   91.6483   14.7809 C.ar    1  UNL1        0.0207
     32 C          65.5660   90.7410   14.4415 C.ar    1  UNL1        0.0406
@<TRIPOS>BOND
     1    11    12    2
     2    12    13    2
     3    12     9    1
     4     9     1    1
     5     1     2   ar
     6     2     3   ar
     7     3     4    1
     8     3     5   ar
     9     5    22    1
    10    22    23    1
    11    23    24   ar
    12    24    25   ar
    13    25    26   ar
    14    26    27   ar
    15    27    28   ar
    16    28    29   ar
    17    29    30   ar
    18    30    31   ar
    19    31    32   ar
    20     5     6   ar
    21     6     7    1
    22     6     8   ar
    23    12    14    1
    24    14    15   ar
    25    15    16   ar
    26    16    17   ar
    27    17    18    1
    28    17    19   ar
    29    19    20   ar
    30    20    21    1
    31     8     1   ar
    32    20    14   ar
    33    32    23   ar
    34    31    26   ar
    35     9    10    1
@<TRIPOS>MOLECULE
*****
 32 35 0 0 0
SMALL
GASTEIGER

@<TRIPOS>ATOM
      1 C          63.8573   87.4383   14.3118 C.ar    1  UNL1        0.0667
      2 C          64.2810   88.5513   15.2238 C.ar    1  UNL1        0.0304
      3 C          64.2786   89.9677   14.7299 C.ar    1  UNL1        0.0942
      4 CL         64.7023   91.0806   15.6419 Cl      1  UNL1       -0.0790
      5 C          63.8526   90.2711   13.3241 C.ar    1  UNL1        0.1663
      6 C          63.4290   89.1581   12.4120 C.ar    1  UNL1        0.0942
      7 CL         63.0030   89.4615   11.0062 Cl      1  UNL1       -0.0790
      8 C          63.4313   87.7417   12.9059 C.ar    1  UNL1        0.0304
      9 N          63.8597   86.0220   14.8056 N.pl3   1  UNL1       -0.2149
     10 H          63.9630   85.8360   15.7669 H       1  UNL1        0.1737
     11 O          62.2519   85.2258   13.6737 O.2     1  UNL1       -0.1499
     12 S          63.7046   84.8890   13.8349 S.O2    1  UNL1        0.0744
     13 O          65.1573   84.5521   13.9960 O.2     1  UNL1       -0.1499
     14 C          63.5496   83.7560   12.8642 C.ar    1  UNL1        0.1357
     15 C          64.0834   83.8859   11.4683 C.ar    1  UNL1        0.0219
     16 C          63.9284   82.7529   10.4976 C.ar    1  UNL1        0.0128
     17 C          63.2395   81.4900   10.9227 C.ar    1  UNL1        0.0586
     18 CL         63.0845   80.3571    9.9520 Cl      1  UNL1       -0.0822
     19 C          62.7057   81.3601   12.3184 C.ar    1  UNL1        0.0241
     20 C          62.8608   82.4931   13.2892 C.ar    1  UNL1        0.0773
     21 CL         62.3270   82.3632   14.6849 Cl      1  UNL1       -0.0808
     22 O          63.8503   91.6875   12.8302 O.3     1  UNL1       -0.4502
     23 C          65.0089   92.2047   12.0300 C.ar    1  UNL1        0.1645
     24 C          66.3854   91.6557   12.2623 C.ar    1  UNL1        0.1362
     25 N          67.5439   92.1728   11.4621 N.ar    1  UNL1       -0.2406
     26 C          67.3260   93.2390   10.4297 C.ar    1  UNL1        0.0815
     27 C          68.4846   93.7561    9.6296 C.ar    1  UNL1        0.0191
     28 C          68.2667   94.8223    8.5972 C.ar    1  UNL1        0.0015
     29 C          66.8902   95.3712    8.3649 C.ar    1  UNL1        0.0001
     30 C          65.7316   94.8541    9.1651 C.ar    1  UNL1        0.0016
     31 C          65.9495   93.7880   10.1975 C.ar    1  UNL1        0.0207
     32 C          64.7910   93.2708   10.9977 C.ar    1  UNL1        0.0406
@<TRIPOS>BOND
     1    11    12    2
     2    12    13    2
     3    12     9    1
     4     9     1    1
     5     1     2   ar
     6     2     3   ar
     7     3     4    1
     8     3     5   ar
     9     5    22    1
    10    22    23    1
    11    23    24   ar
    12    24    25   ar
    13    25    26   ar
    14    26    27   ar
    15    27    28   ar
    16    28    29   ar
    17    29    30   ar
    18    30    31   ar
    19    31    32   ar
    20     5     6   ar
    21     6     7    1
    22     6     8   ar
    23    12    14    1
    24    14    15   ar
    25    15    16   ar
    26    16    17   ar
    27    17    18    1
    28    17    19   ar
    29    19    20   ar
    30    20    21    1
    31     8     1   ar
    32    20    14   ar
    33    32    23   ar
    34    31    26   ar
    35     9    10    1
@<TRIPOS>MOLECULE
*****
 32 35 0 0 0
SMALL
GASTEIGER

@<TRIPOS>ATOM
      1 C          64.5712   91.5304   12.7462 C.ar    1  UNL1        0.0667
      2 C          63.5331   91.5958   11.6655 C.ar    1  UNL1        0.0304
      3 C          62.5925   90.4458   11.4584 C.ar    1  UNL1        0.0942
      4 CL         61.5543   90.5113   10.3777 Cl      1  UNL1       -0.0790
      5 C          62.6901   89.2304   12.3320 C.ar    1  UNL1        0.1663
      6 C          63.7283   89.1649   13.4127 C.ar    1  UNL1        0.0942
      7 CL         63.8259   87.9495   14.2863 Cl      1  UNL1       -0.0790
      8 C          64.6688   90.3149   13.6198 C.ar    1  UNL1        0.0304
      9 N          65.5118   92.6804   12.9533 N.pl3   1  UNL1       -0.2149
     10 H          65.8453   92.8870   13.8562 H       1  UNL1        0.1737
     11 O          65.2288   92.5824   10.8531 O.2     1  UNL1       -0.1499
     12 S          65.9441   93.5155   11.7846 S.O2    1  UNL1        0.0744
     13 O          66.6594   94.4485   12.7160 O.2     1  UNL1       -0.1499
     14 C          66.3765   94.3506   10.6160 C.ar    1  UNL1        0.1357
     15 C          65.7590   95.6985   10.3881 C.ar    1  UNL1        0.0219
     16 C          66.1914   96.5336    9.2195 C.ar    1  UNL1        0.0128
     17 C          67.2412   96.0209    8.2788 C.ar    1  UNL1        0.0586
     18 CL         67.6736   96.8560    7.1102 Cl      1  UNL1       -0.0822
     19 C          67.8587   94.6730    8.5067 C.ar    1  UNL1        0.0241
     20 C          67.4263   93.8378    9.6753 C.ar    1  UNL1        0.0773
     21 CL         68.0438   92.4900    9.9032 Cl      1  UNL1       -0.0808
     22 O          61.7495   88.0804   12.1249 O.3     1  UNL1       -0.4502
     23 C          62.2478   86.8048   11.5128 C.ar    1  UNL1        0.1645
     24 C          62.3290   86.6703   10.0211 C.ar    1  UNL1        0.1362
     25 N          62.8273   85.3948    9.4090 N.ar    1  UNL1       -0.2406
     26 C          63.2445   84.2536   10.2887 C.ar    1  UNL1        0.0815
     27 C          63.7428   82.9781    9.6767 C.ar    1  UNL1        0.0191
     28 C          64.1599   81.8370   10.5564 C.ar    1  UNL1        0.0015
     29 C          64.0788   81.9715   12.0481 C.ar    1  UNL1        0.0001
     30 C          63.5805   83.2471   12.6602 C.ar    1  UNL1        0.0016
     31 C          63.1633   84.3881   11.7805 C.ar    1  UNL1        0.0207
     32 C          62.6650   85.6637   12.3925 C.ar    1  UNL1        0.0406
@<TRIPOS>BOND
     1    11    12    2
     2    12    13    2
     3    12     9    1
     4     9     1    1
     5     1     2   ar
     6     2     3   ar
     7     3     4    1
     8     3     5   ar
     9     5    22    1
    10    22    23    1
    11    23    24   ar
    12    24    25   ar
    13    25    26   ar
    14    26    27   ar
    15    27    28   ar
    16    28    29   ar
    17    29    30   ar
    18    30    31   ar
    19    31    32   ar
    20     5     6   ar
    21     6     7    1
    22     6     8   ar
    23    12    14    1
    24    14    15   ar
    25    15    16   ar
    26    16    17   ar
    27    17    18    1
    28    17    19   ar
    29    19    20   ar
    30    20    21    1
    31     8     1   ar
    32    20    14   ar
    33    32    23   ar
    34    31    26   ar
    35     9    10    1
@<TRIPOS>MOLECULE
*****
 32 35 0 0 0
SMALL
GASTEIGER

@<TRIPOS>ATOM
      1 C          63.9422   85.4033   15.1708 C.ar    1  UNL1        0.0667
      2 C          63.8462   86.0685   13.8298 C.ar    1  UNL1        0.0304
      3 C          63.4860   87.5216   13.7374 C.ar    1  UNL1        0.0942
      4 CL         63.3901   88.1868   12.3964 Cl      1  UNL1       -0.0790
      5 C          63.2217   88.3096   14.9861 C.ar    1  UNL1        0.1663
      6 C          63.3176   87.6445   16.3272 C.ar    1  UNL1        0.0942
      7 CL         63.0533   88.4325   17.5758 Cl      1  UNL1       -0.0790
      8 C          63.6779   86.1913   16.4195 C.ar    1  UNL1        0.0304
      9 N          64.3024   83.9501   15.2631 N.pl3   1  UNL1       -0.2149
     10 H          64.7661   83.6077   16.0612 H       1  UNL1        0.1737
     11 O          62.5672   82.8742   14.6872 O.2     1  UNL1       -0.1499
     12 S          63.9561   83.0187   14.1394 S.O2    1  UNL1        0.0744
     13 O          65.3449   83.1632   13.5916 O.2     1  UNL1       -0.1499
     14 C          63.6098   82.0873   13.0158 C.ar    1  UNL1        0.1357
     15 C          63.0584   80.7245   13.3141 C.ar    1  UNL1        0.0219
     16 C          62.7121   79.7932   12.1905 C.ar    1  UNL1        0.0128
     17 C          62.9172   80.2245   10.7685 C.ar    1  UNL1        0.0586
     18 CL         62.5709   79.2931    9.6449 Cl      1  UNL1       -0.0822
     19 C          63.4685   81.5872   10.4702 C.ar    1  UNL1        0.0241
     20 C          63.8148   82.5186   11.5939 C.ar    1  UNL1        0.0773
     21 CL         64.3661   83.8813   11.2956 Cl      1  UNL1       -0.0808
     22 O          62.8615   89.7628   14.8937 O.3     1  UNL1       -0.4502
     23 C          63.8449   90.7449   14.3293 C.ar    1  UNL1        0.1645
     24 C          64.8419   91.4103   15.2311 C.ar    1  UNL1        0.1362
     25 N          65.8252   92.3924   14.6668 N.ar    1  UNL1       -0.2406
     26 C          65.8117   92.7090   13.2006 C.ar    1  UNL1        0.0815
     27 C          66.7951   93.6911   12.6362 C.ar    1  UNL1        0.0191
     28 C          66.7814   94.0077   11.1701 C.ar    1  UNL1        0.0015
     29 C          65.7845   93.3422   10.2684 C.ar    1  UNL1        0.0001
     30 C          64.8011   92.3602   10.8327 C.ar    1  UNL1        0.0016
     31 C          64.8147   92.0436   12.2988 C.ar    1  UNL1        0.0207
     32 C          63.8313   91.0615   12.8632 C.ar    1  UNL1        0.0406
@<TRIPOS>BOND
     1    11    12    2
     2    12    13    2
     3    12     9    1
     4     9     1    1
     5     1     2   ar
     6     2     3   ar
     7     3     4    1
     8     3     5   ar
     9     5    22    1
    10    22    23    1
    11    23    24   ar
    12    24    25   ar
    13    25    26   ar
    14    26    27   ar
    15    27    28   ar
    16    28    29   ar
    17    29    30   ar
    18    30    31   ar
    19    31    32   ar
    20     5     6   ar
    21     6     7    1
    22     6     8   ar
    23    12    14    1
    24    14    15   ar
    25    15    16   ar
    26    16    17   ar
    27    17    18    1
    28    17    19   ar
    29    19    20   ar
    30    20    21    1
    31     8     1   ar
    32    20    14   ar
    33    32    23   ar
    34    31    26   ar
    35     9    10    1
@<TRIPOS>MOLECULE
*****
 32 35 0 0 0
SMALL
GASTEIGER

@<TRIPOS>ATOM
      1 C          62.7427   88.5139   12.1758 C.ar    1  UNL1        0.0667
      2 C          63.5173   88.7018   13.4464 C.ar    1  UNL1        0.0304
      3 C          64.2855   89.9696   13.6760 C.ar    1  UNL1        0.0942
      4 CL         65.0601   90.1575   14.9467 Cl      1  UNL1       -0.0790
      5 C          64.2790   91.0495   12.6350 C.ar    1  UNL1        0.1663
      6 C          63.5043   90.8616   11.3643 C.ar    1  UNL1        0.0942
      7 CL         63.4978   91.9414   10.3232 Cl      1  UNL1       -0.0790
      8 C          62.7362   89.5938   11.1347 C.ar    1  UNL1        0.0304
      9 N          61.9745   87.2461   11.9462 N.pl3   1  UNL1       -0.2149
     10 H          61.5004   86.8156   12.6939 H       1  UNL1        0.1737
     11 O          62.0963   87.9931    9.9644 O.2     1  UNL1       -0.1499
     12 S          61.9288   86.6343   10.5773 S.O2    1  UNL1        0.0744
     13 O          61.7613   85.2756   11.1903 O.2     1  UNL1       -0.1499
     14 C          61.8831   86.0225    9.2086 C.ar    1  UNL1        0.1357
     15 C          63.0816   85.2987    8.6702 C.ar    1  UNL1        0.0219
     16 C          63.0359   84.6869    7.3014 C.ar    1  UNL1        0.0128
     17 C          61.7918   84.7989    6.4710 C.ar    1  UNL1        0.0586
     18 CL         61.7461   84.1871    5.1022 Cl      1  UNL1       -0.0822
     19 C          60.5933   85.5226    7.0093 C.ar    1  UNL1        0.0241
     20 C          60.6390   86.1345    8.3782 C.ar    1  UNL1        0.0773
     21 CL         59.4406   86.8582    8.9165 Cl      1  UNL1       -0.0808
     22 O          65.0471   92.3172   12.8646 O.3     1  UNL1       -0.4502
     23 C          65.8099   92.9467   11.7367 C.ar    1  UNL1        0.1645
     24 C          67.0076   92.2509   11.1610 C.ar    1  UNL1        0.1362
     25 N          67.7704   92.8803   10.0332 N.ar    1  UNL1       -0.2406
     26 C          67.3355   94.2055    9.4810 C.ar    1  UNL1        0.0815
     27 C          68.0983   94.8349    8.3533 C.ar    1  UNL1        0.0191
     28 C          67.6634   96.1600    7.8012 C.ar    1  UNL1        0.0015
     29 C          66.4657   96.8558    8.3769 C.ar    1  UNL1        0.0001
     30 C          65.7029   96.2264    9.5047 C.ar    1  UNL1        0.0016
     31 C          66.1378   94.9013   10.0568 C.ar    1  UNL1        0.0207
     32 C          65.3750   94.2718   11.1846 C.ar    1  UNL1        0.0406
@<TRIPOS>BOND
     1    11    12    2
     2    12    13    2
     3    12     9    1
     4     9     1    1
     5     1     2   ar
     6     2     3   ar
     7     3     4    1
     8     3     5   ar
     9     5    22    1
    10    22    23    1
    11    23    24   ar
    12    24    25   ar
    13    25    26   ar
    14    26    27   ar
    15    27    28   ar
    16    28    29   ar
    17    29    30   ar
    18    30    31   ar
    19    31    32   ar
    20     5     6   ar
    21     6     7    1
    22     6     8   ar
    23    12    14    1
    24    14    15   ar
    25    15    16   ar
    26    16    17   ar
    27    17    18    1
    28    17    19   ar
    29    19    20   ar
    30    20    21    1
    31     8     1   ar
    32    20    14   ar
    33    32    23   ar
    34    31    26   ar
    35     9    10    1
@<TRIPOS>MOLECULE
*****
 32 35 0 0 0
SMALL
GASTEIGER

@<TRIPOS>ATOM
      1 C          62.5995   87.9886   11.3358 C.ar    1  UNL1        0.0667
      2 C          63.2798   88.0704   12.6701 C.ar    1  UNL1        0.0304
      3 C          63.9077   89.3583   13.1142 C.ar    1  UNL1        0.0942
      4 CL         64.5879   89.4401   14.4485 Cl      1  UNL1       -0.0790
      5 C          63.8554   90.5643   12.2238 C.ar    1  UNL1        0.1663
      6 C          63.1751   90.4825   10.8894 C.ar    1  UNL1        0.0942
      7 CL         63.1228   91.6885    9.9991 Cl      1  UNL1       -0.0790
      8 C          62.5472   89.1946   10.4454 C.ar    1  UNL1        0.0304
      9 N          61.9716   86.7007   10.8918 N.pl3   1  UNL1       -0.2149
     10 H          61.2812   86.7060   10.1899 H       1  UNL1        0.1737
     11 O          61.5573   85.7121   12.7224 O.2     1  UNL1       -0.1499
     12 S          62.3956   85.4048   11.5171 S.O2    1  UNL1        0.0744
     13 O          63.2340   85.0976   10.3118 O.2     1  UNL1       -0.1499
     14 C          62.8197   84.1090   12.1423 C.ar    1  UNL1        0.1357
     15 C          62.3948   82.8068   11.5309 C.ar    1  UNL1        0.0219
     16 C          62.8188   81.5109   12.1562 C.ar    1  UNL1        0.0128
     17 C          63.6677   81.5173   13.3928 C.ar    1  UNL1        0.0586
     18 CL         64.0917   80.2214   14.0181 Cl      1  UNL1       -0.0822
     19 C          64.0926   82.8194   14.0042 C.ar    1  UNL1        0.0241
     20 C          63.6686   84.1153   13.3790 C.ar    1  UNL1        0.0773
     21 CL         64.0934   85.4175   13.9904 Cl      1  UNL1       -0.0808
     22 O          64.4833   91.8521   12.6679 O.3     1  UNL1       -0.4502
     23 C          65.3866   92.6061   11.7374 C.ar    1  UNL1        0.1645
     24 C          66.6750   91.9894   11.2794 C.ar    1  UNL1        0.1362
     25 N          67.5783   92.7432   10.3490 N.ar    1  UNL1       -0.2406
     26 C          67.1932   94.1138    9.8765 C.ar    1  UNL1        0.0815
     27 C          68.0965   94.8677    8.9461 C.ar    1  UNL1        0.0191
     28 C          67.7114   96.2382    8.4736 C.ar    1  UNL1        0.0015
     29 C          66.4230   96.8549    8.9316 C.ar    1  UNL1        0.0001
     30 C          65.5197   96.1011    9.8621 C.ar    1  UNL1        0.0016
     31 C          65.9048   94.7305   10.3345 C.ar    1  UNL1        0.0207
     32 C          65.0015   93.9766   11.2650 C.ar    1  UNL1        0.0406
@<TRIPOS>BOND
     1    11    12    2
     2    12    13    2
     3    12     9    1
     4     9     1    1
     5     1     2   ar
     6     2     3   ar
     7     3     4    1
     8     3     5   ar
     9     5    22    1
    10    22    23    1
    11    23    24   ar
    12    24    25   ar
    13    25    26   ar
    14    26    27   ar
    15    27    28   ar
    16    28    29   ar
    17    29    30   ar
    18    30    31   ar
    19    31    32   ar
    20     5     6   ar
    21     6     7    1
    22     6     8   ar
    23    12    14    1
    24    14    15   ar
    25    15    16   ar
    26    16    17   ar
    27    17    18    1
    28    17    19   ar
    29    19    20   ar
    30    20    21    1
    31     8     1   ar
    32    20    14   ar
    33    32    23   ar
    34    31    26   ar
    35     9    10    1
@<TRIPOS>MOLECULE
*****
 32 35 0 0 0
SMALL
GASTEIGER

@<TRIPOS>ATOM
      1 C          62.4770   87.7714   10.9109 C.ar    1  UNL1        0.0667
      2 C          62.9576   87.9002   12.3260 C.ar    1  UNL1        0.0304
      3 C          63.3849   89.2374   12.8542 C.ar    1  UNL1        0.0942
      4 CL         63.8655   89.3662   14.2693 Cl      1  UNL1       -0.0790
      5 C          63.3317   90.4460   11.9674 C.ar    1  UNL1        0.1663
      6 C          62.8511   90.3173   10.5523 C.ar    1  UNL1        0.0942
      7 CL         62.7978   91.5259    9.6655 Cl      1  UNL1       -0.0790
      8 C          62.4237   88.9801   10.0240 C.ar    1  UNL1        0.0304
      9 N          62.0496   86.4342   10.3827 N.pl3   1  UNL1       -0.2149
     10 H          61.5250   86.3780    9.5515 H       1  UNL1        0.1737
     11 O          63.3501   84.8010   10.0063 O.2     1  UNL1       -0.1499
     12 S          62.4216   85.1824   11.1209 S.O2    1  UNL1        0.0744
     13 O          61.4932   85.5639   12.2355 O.2     1  UNL1       -0.1499
     14 C          62.7936   83.9308   11.8591 C.ar    1  UNL1        0.1357
     15 C          62.4226   82.5903   11.2972 C.ar    1  UNL1        0.0219
     16 C          62.7945   81.3387   12.0354 C.ar    1  UNL1        0.0128
     17 C          63.5375   81.4274   13.3354 C.ar    1  UNL1        0.0586
     18 CL         63.9095   80.1757   14.0736 Cl      1  UNL1       -0.0822
     19 C          63.9085   82.7677   13.8973 C.ar    1  UNL1        0.0241
     20 C          63.5366   84.0195   13.1591 C.ar    1  UNL1        0.0773
     21 CL         63.9076   85.3598   13.7210 Cl      1  UNL1       -0.0808
     22 O          63.7590   91.7833   12.4957 O.3     1  UNL1       -0.4502
     23 C          65.1786   91.9996   12.9293 C.ar    1  UNL1        0.1645
     24 C          66.2657   92.1232   11.9032 C.ar    1  UNL1        0.1362
     25 N          67.6853   92.3395   12.3368 N.ar    1  UNL1       -0.2406
     26 C          68.0178   92.4322   13.7966 C.ar    1  UNL1        0.0815
     27 C          69.4374   92.6485   14.2302 C.ar    1  UNL1        0.0191
     28 C          69.7698   92.7411   15.6899 C.ar    1  UNL1        0.0015
     29 C          68.6827   92.6175   16.7160 C.ar    1  UNL1        0.0001
     30 C          67.2632   92.4012   16.2824 C.ar    1  UNL1        0.0016
     31 C          66.9307   92.3085   14.8227 C.ar    1  UNL1        0.0207
     32 C          65.5111   92.0922   14.3891 C.ar    1  UNL1        0.0406
@<TRIPOS>BOND
     1    11    12    2
     2    12    13    2
     3    12     9    1
     4     9     1    1
     5     1     2   ar
     6     2     3   ar
     7     3     4    1
     8     3     5   ar
     9     5    22    1
    10    22    23    1
    11    23    24   ar
    12    24    25   ar
    13    25    26   ar
    14    26    27   ar
    15    27    28   ar
    16    28    29   ar
    17    29    30   ar
    18    30    31   ar
    19    31    32   ar
    20     5     6   ar
    21     6     7    1
    22     6     8   ar
    23    12    14    1
    24    14    15   ar
    25    15    16   ar
    26    16    17   ar
    27    17    18    1
    28    17    19   ar
    29    19    20   ar
    30    20    21    1
    31     8     1   ar
    32    20    14   ar
    33    32    23   ar
    34    31    26   ar
    35     9    10    1
@<TRIPOS>MOLECULE
*****
 32 35 0 0 0
SMALL
GASTEIGER

@<TRIPOS>ATOM
      1 C          63.7457   89.3360   15.5899 C.ar    1  UNL1        0.0667
      2 C          62.9638   88.7752   16.7406 C.ar    1  UNL1        0.0304
      3 C          62.9669   87.2978   17.0003 C.ar    1  UNL1        0.0942
      4 CL         62.1850   86.7370   18.1510 Cl      1  UNL1       -0.0790
      5 C          63.7519   86.3813   16.1094 C.ar    1  UNL1        0.1663
      6 C          64.5339   86.9422   14.9586 C.ar    1  UNL1        0.0942
      7 CL         65.3188   86.0257   14.0677 Cl      1  UNL1       -0.0790
      8 C          64.5307   88.4195   14.6989 C.ar    1  UNL1        0.0304
      9 N          63.7425   90.8134   15.3301 N.pl3   1  UNL1       -0.2149
     10 H          63.2381   91.4163   15.9228 H       1  UNL1        0.1737
     11 O          65.1837   92.3502   15.0822 O.2     1  UNL1       -0.1499
     12 S          64.5081   91.3720   14.1674 S.O2    1  UNL1        0.0744
     13 O          63.8325   90.3939   13.2527 O.2     1  UNL1       -0.1499
     14 C          65.2736   91.9307   13.0047 C.ar    1  UNL1        0.1357
     15 C          64.5443   92.3843   11.7749 C.ar    1  UNL1        0.0219
     16 C          65.3098   92.9430   10.6122 C.ar    1  UNL1        0.0128
     17 C          66.8046   93.0480   10.6793 C.ar    1  UNL1        0.0586
     18 CL         67.5701   93.6066    9.5166 Cl      1  UNL1       -0.0822
     19 C          67.5339   92.5944   11.9090 C.ar    1  UNL1        0.0241
     20 C          66.7684   92.0357   13.0718 C.ar    1  UNL1        0.0773
     21 CL         67.4977   91.5821   14.3015 Cl      1  UNL1       -0.0808
     22 O          63.7550   84.9040   16.3691 O.3     1  UNL1       -0.4502
     23 C          63.4013   83.9482   15.2684 C.ar    1  UNL1        0.1645
     24 C          62.3037   82.9458   15.4695 C.ar    1  UNL1        0.1362
     25 N          61.9500   81.9901   14.3689 N.ar    1  UNL1       -0.2406
     26 C          62.6939   82.0367   13.0671 C.ar    1  UNL1        0.0815
     27 C          62.3402   81.0810   11.9665 C.ar    1  UNL1        0.0191
     28 C          63.0840   81.1276   10.6649 C.ar    1  UNL1        0.0015
     29 C          64.1816   82.1300   10.4638 C.ar    1  UNL1        0.0001
     30 C          64.5354   83.0858   11.5644 C.ar    1  UNL1        0.0016
     31 C          63.7915   83.0391   12.8661 C.ar    1  UNL1        0.0207
     32 C          64.1452   83.9949   13.9668 C.ar    1  UNL1        0.0406
@<TRIPOS>BOND
     1    11    12    2
     2    12    13    2
     3    12     9    1
     4     9     1    1
     5     1     2   ar
     6     2     3   ar
     7     3     4    1
     8     3     5   ar
     9     5    22    1
    10    22    23    1
    11    23    24   ar
    12    24    25   ar
    13    25    26   ar
    14    26    27   ar
    15    27    28   ar
    16    28    29   ar
    17    29    30   ar
    18    30    31   ar
    19    31    32   ar
    20     5     6   ar
    21     6     7    1
    22     6     8   ar
    23    12    14    1
    24    14    15   ar
    25    15    16   ar
    26    16    17   ar
    27    17    18    1
    28    17    19   ar
    29    19    20   ar
    30    20    21    1
    31     8     1   ar
    32    20    14   ar
    33    32    23   ar
    34    31    26   ar
    35     9    10    1
