@<TRIPOS>MOLECULE
*****
 22 23 0 0 0
SMALL
GASTEIGER

@<TRIPOS>ATOM
      1 C          65.3722   91.6085   13.5455 C.ar    1  UNL1        0.1754
      2 C          64.1846   91.2008   12.7250 C.ar    1  UNL1        0.0403
      3 C          64.1114   91.5746   11.2741 C.ar    1  UNL1        0.0063
      4 C          65.2257   92.3563   10.6439 C.ar    1  UNL1        0.0403
      5 C          66.4133   92.7641   11.4645 C.ar    1  UNL1        0.1754
      6 C          66.4865   92.3902   12.9153 C.ar    1  UNL1        0.2061
      7 C          64.1897   91.1441   15.8118 C.3     1  UNL1        0.2526
      8 O          65.4454   91.2347   14.9963 O.3     1  UNL1       -0.4683
      9 C          62.9237   91.1668   10.4536 C.2     1  UNL1        0.0035
     10 C          62.0425   90.0444   10.9158 C.2     1  UNL1        0.0420
     11 C          60.8550   89.6365   10.0953 C.2     1  UNL1        0.1957
     12 O          59.6497   90.5269   10.0261 O.2     1  UNL1       -0.2866
     13 C          60.8725   88.3384    9.3440 C.ar    1  UNL1        0.0420
     14 C          59.7402   87.9885    8.4246 C.ar    1  UNL1        0.0239
     15 C          59.7578   86.6904    7.6733 C.ar    1  UNL1        0.0990
     16 N          60.9077   85.7421    7.8413 N.ar    1  UNL1       -0.2423
     17 C          62.0401   86.0919    8.7607 C.ar    1  UNL1        0.0990
     18 C          62.0226   87.3901    9.5121 C.ar    1  UNL1        0.0239
     19 O          67.5277   93.5457   10.8342 O.3     1  UNL1       -0.4683
     20 C          67.8276   93.3800    9.3739 C.3     1  UNL1        0.2526
     21 O          67.6741   92.7980   13.7358 O.3     1  UNL1       -0.4654
     22 C          67.4821   93.6171   14.9777 C.3     1  UNL1        0.2528
@<TRIPOS>BOND
     1     7     8    1
     2     8     1    1
     3     1     2   ar
     4     2     3   ar
     5     3     9    1
     6     9    10    2
     7    10    11    1
     8    11    12    2
     9    11    13    1
    10    13    14   ar
    11    14    15   ar
    12    15    16   ar
    13    16    17   ar
    14    17    18   ar
    15     3     4   ar
    16     4     5   ar
    17     5    19    1
    18    19    20    1
    19     5     6   ar
    20     6    21    1
    21    21    22    1
    22     6     1   ar
    23    18    13   ar
@<TRIPOS>MOLECULE
*****
 22 23 0 0 0
SMALL
GASTEIGER

@<TRIPOS>ATOM
      1 C          66.4208   92.7629   11.5025 C.ar    1  UNL1        0.1754
      2 C          65.2401   92.3518   10.6738 C.ar    1  UNL1        0.0403
      3 C          64.1249   91.5647   11.2956 C.ar    1  UNL1        0.0063
      4 C          64.1904   91.1887   12.7462 C.ar    1  UNL1        0.0403
      5 C          65.3711   91.5998   13.5749 C.ar    1  UNL1        0.1754
      6 C          66.4863   92.3869   12.9531 C.ar    1  UNL1        0.2061
      7 C          67.5444   93.7989    9.4015 C.3     1  UNL1        0.2526
      8 O          67.5361   93.5501   10.8806 O.3     1  UNL1       -0.4683
      9 C          62.9442   91.1536   10.4668 C.2     1  UNL1        0.0035
     10 C          62.0229   90.0758   10.9565 C.2     1  UNL1        0.0420
     11 C          60.8422   89.6647   10.1277 C.2     1  UNL1        0.1957
     12 O          59.6356   90.5524   10.0489 O.2     1  UNL1       -0.2866
     13 C          60.8680   88.3659    9.3778 C.ar    1  UNL1        0.0420
     14 C          59.7379   88.0079    8.4588 C.ar    1  UNL1        0.0239
     15 C          59.7638   86.7091    7.7088 C.ar    1  UNL1        0.0990
     16 N          60.9197   85.7682    7.8779 N.ar    1  UNL1       -0.2423
     17 C          62.0499   86.1262    8.7970 C.ar    1  UNL1        0.0990
     18 C          62.0241   87.4250    9.5469 C.ar    1  UNL1        0.0239
     19 O          65.4367   91.2238   15.0256 O.3     1  UNL1       -0.4683
     20 C          64.1782   91.1479   15.8383 C.3     1  UNL1        0.2526
     21 O          67.6671   92.7981   13.7819 O.3     1  UNL1       -0.4654
     22 C          67.4623   93.5971   15.0347 C.3     1  UNL1        0.2528
@<TRIPOS>BOND
     1     7     8    1
     2     8     1    1
     3     1     2   ar
     4     2     3   ar
     5     3     9    1
     6     9    10    2
     7    10    11    1
     8    11    12    2
     9    11    13    1
    10    13    14   ar
    11    14    15   ar
    12    15    16   ar
    13    16    17   ar
    14    17    18   ar
    15     3     4   ar
    16     4     5   ar
    17     5    19    1
    18    19    20    1
    19     5     6   ar
    20     6    21    1
    21    21    22    1
    22     6     1   ar
    23    18    13   ar
@<TRIPOS>MOLECULE
*****
 22 23 0 0 0
SMALL
GASTEIGER

@<TRIPOS>ATOM
      1 C          64.9247   91.9247   11.9203 C.ar    1  UNL1        0.1754
      2 C          64.2600   90.8966   12.7871 C.ar    1  UNL1        0.0403
      3 C          64.8268   90.5749   14.1381 C.ar    1  UNL1        0.0063
      4 C          66.0583   91.2812   14.6223 C.ar    1  UNL1        0.0403
      5 C          66.7230   92.3093   13.7556 C.ar    1  UNL1        0.1754
      6 C          66.1562   92.6310   12.4046 C.ar    1  UNL1        0.2061
      7 C          63.2033   91.4538   10.0322 C.3     1  UNL1        0.2526
      8 O          64.3579   92.2464   10.5693 O.3     1  UNL1       -0.4683
      9 C          64.1621   89.5468   15.0048 C.2     1  UNL1        0.0035
     10 C          64.4120   88.0876   14.7636 C.2     1  UNL1        0.0420
     11 C          63.7474   87.0595   15.6302 C.2     1  UNL1        0.1957
     12 O          63.1273   87.4655   16.9344 O.2     1  UNL1       -0.2866
     13 C          63.7027   85.6254   15.1928 C.ar    1  UNL1        0.0420
     14 C          64.7141   85.1082   14.2133 C.ar    1  UNL1        0.0239
     15 C          64.6694   83.6741   13.7759 C.ar    1  UNL1        0.0990
     16 N          63.6134   82.7571   14.3180 N.ar    1  UNL1       -0.2423
     17 C          62.6019   83.2743   15.2976 C.ar    1  UNL1        0.0990
     18 C          62.6466   84.7084   15.7350 C.ar    1  UNL1        0.0239
     19 O          67.9545   93.0156   14.2398 O.3     1  UNL1       -0.4683
     20 C          68.0398   93.4846   15.6621 C.3     1  UNL1        0.2526
     21 O          66.8209   93.6591   11.5378 O.3     1  UNL1       -0.4654
     22 C          66.2604   95.0482   11.4577 C.3     1  UNL1        0.2528
@<TRIPOS>BOND
     1     7     8    1
     2     8     1    1
     3     1     2   ar
     4     2     3   ar
     5     3     9    1
     6     9    10    2
     7    10    11    1
     8    11    12    2
     9    11    13    1
    10    13    14   ar
    11    14    15   ar
    12    15    16   ar
    13    16    17   ar
    14    17    18   ar
    15     3     4   ar
    16     4     5   ar
    17     5    19    1
    18    19    20    1
    19     5     6   ar
    20     6    21    1
    21    21    22    1
    22     6     1   ar
    23    18    13   ar
@<TRIPOS>MOLECULE
*****
 22 23 0 0 0
SMALL
GASTEIGER

@<TRIPOS>ATOM
      1 C          63.7588   84.9540   13.7038 C.ar    1  UNL1        0.1754
      2 C          64.2485   86.1224   14.5069 C.ar    1  UNL1        0.0403
      3 C          64.0260   87.5201   14.0100 C.ar    1  UNL1        0.0063
      4 C          63.3137   87.7494   12.7100 C.ar    1  UNL1        0.0403
      5 C          62.8240   86.5810   11.9069 C.ar    1  UNL1        0.1754
      6 C          63.0465   85.1833   12.4038 C.ar    1  UNL1        0.2061
      7 C          62.8238   82.7461   14.7042 C.3     1  UNL1        0.2526
      8 O          63.9814   83.5563   14.2006 O.3     1  UNL1       -0.4683
      9 C          64.5157   88.6885   14.8132 C.2     1  UNL1        0.0035
     10 C          63.8679   90.0320   14.6545 C.2     1  UNL1        0.0420
     11 C          64.3576   91.2004   15.4576 C.2     1  UNL1        0.1957
     12 O          63.5052   91.7667   16.5543 O.2     1  UNL1       -0.2866
     13 C          65.6997   91.8025   15.1641 C.ar    1  UNL1        0.0420
     14 C          66.3470   91.5778   13.8297 C.ar    1  UNL1        0.0239
     15 C          67.6891   92.1798   13.5362 C.ar    1  UNL1        0.0990
     16 N          68.3840   93.0067   14.5771 N.ar    1  UNL1       -0.2423
     17 C          67.7368   93.2314   15.9115 C.ar    1  UNL1        0.0990
     18 C          66.3947   92.6293   16.2050 C.ar    1  UNL1        0.0239
     19 O          62.1116   86.8103   10.6069 O.3     1  UNL1       -0.4683
     20 C          60.7375   87.4117   10.6005 C.3     1  UNL1        0.2526
     21 O          62.5568   84.0149   11.6006 O.3     1  UNL1       -0.4654
     22 C          63.5099   83.2509   10.7301 C.3     1  UNL1        0.2528
@<TRIPOS>BOND
     1     7     8    1
     2     8     1    1
     3     1     2   ar
     4     2     3   ar
     5     3     9    1
     6     9    10    2
     7    10    11    1
     8    11    12    2
     9    11    13    1
    10    13    14   ar
    11    14    15   ar
    12    15    16   ar
    13    16    17   ar
    14    17    18   ar
    15     3     4   ar
    16     4     5   ar
    17     5    19    1
    18    19    20    1
    19     5     6   ar
    20     6    21    1
    21    21    22    1
    22     6     1   ar
    23    18    13   ar
@<TRIPOS>MOLECULE
*****
 22 23 0 0 0
SMALL
GASTEIGER

@<TRIPOS>ATOM
      1 C          63.9099   90.9517   12.0961 C.ar    1  UNL1        0.1754
      2 C          63.5868   89.7319   12.9071 C.ar    1  UNL1        0.0403
      3 C          64.3112   89.4741   14.1951 C.ar    1  UNL1        0.0063
      4 C          65.3586   90.4361   14.6720 C.ar    1  UNL1        0.0403
      5 C          65.6817   91.6558   13.8610 C.ar    1  UNL1        0.1754
      6 C          64.9573   91.9136   12.5730 C.ar    1  UNL1        0.2061
      7 C          62.3255   90.1392   10.2042 C.3     1  UNL1        0.2526
      8 O          63.1855   91.2094   10.8081 O.3     1  UNL1       -0.4683
      9 C          63.9881   88.2543   15.0061 C.2     1  UNL1        0.0035
     10 C          64.2681   86.8891   14.4515 C.2     1  UNL1        0.0420
     11 C          63.9450   85.6693   15.2624 C.2     1  UNL1        0.1957
     12 O          63.8985   85.7545   16.7593 O.2     1  UNL1       -0.2866
     13 C          63.6685   84.3642   14.5766 C.ar    1  UNL1        0.0420
     14 C          62.5222   83.5082   15.0274 C.ar    1  UNL1        0.0239
     15 C          62.2457   82.2032   14.3415 C.ar    1  UNL1        0.0990
     16 N          63.1153   81.7542   13.2048 N.ar    1  UNL1       -0.2423
     17 C          64.2616   82.6103   12.7540 C.ar    1  UNL1        0.0990
     18 C          64.5382   83.9153   13.4398 C.ar    1  UNL1        0.0239
     19 O          66.7292   92.6178   14.3379 O.3     1  UNL1       -0.4683
     20 C          66.9414   92.8274   15.8079 C.3     1  UNL1        0.2526
     21 O          65.2804   93.1334   11.7620 O.3     1  UNL1       -0.4654
     22 C          66.3611   93.0787   10.7231 C.3     1  UNL1        0.2528
@<TRIPOS>BOND
     1     7     8    1
     2     8     1    1
     3     1     2   ar
     4     2     3   ar
     5     3     9    1
     6     9    10    2
     7    10    11    1
     8    11    12    2
     9    11    13    1
    10    13    14   ar
    11    14    15   ar
    12    15    16   ar
    13    16    17   ar
    14    17    18   ar
    15     3     4   ar
    16     4     5   ar
    17     5    19    1
    18    19    20    1
    19     5     6   ar
    20     6    21    1
    21    21    22    1
    22     6     1   ar
    23    18    13   ar
@<TRIPOS>MOLECULE
*****
 22 23 0 0 0
SMALL
GASTEIGER

@<TRIPOS>ATOM
      1 C          62.8005   86.5677   11.9061 C.ar    1  UNL1        0.1754
      2 C          63.2818   87.7401   12.7084 C.ar    1  UNL1        0.0403
      3 C          63.9701   87.5178   14.0225 C.ar    1  UNL1        0.0063
      4 C          64.1770   86.1231   14.5343 C.ar    1  UNL1        0.0403
      5 C          63.6956   84.9507   13.7320 C.ar    1  UNL1        0.1754
      6 C          63.0074   85.1730   12.4179 C.ar    1  UNL1        0.2061
      7 C          61.5602   88.1431   10.2539 C.3     1  UNL1        0.2526
      8 O          62.1122   86.7900   10.5920 O.3     1  UNL1       -0.4683
      9 C          64.4515   88.6902   14.8249 C.2     1  UNL1        0.0035
     10 C          63.9263   90.0647   14.5335 C.2     1  UNL1        0.0420
     11 C          64.4076   91.2372   15.3357 C.2     1  UNL1        0.1957
     12 O          63.5127   91.8585   16.3669 O.2     1  UNL1       -0.2866
     13 C          65.7838   91.7883   15.1070 C.ar    1  UNL1        0.0420
     14 C          66.5089   91.4884   13.8286 C.ar    1  UNL1        0.0239
     15 C          67.8851   92.0395   13.5998 C.ar    1  UNL1        0.0990
     16 N          68.5362   92.8906   14.6494 N.ar    1  UNL1       -0.2423
     17 C          67.8111   93.1906   15.9278 C.ar    1  UNL1        0.0990
     18 C          66.4349   92.6395   16.1566 C.ar    1  UNL1        0.0239
     19 O          63.9025   83.5559   14.2437 O.3     1  UNL1       -0.4683
     20 C          62.7234   82.7262   14.6574 C.3     1  UNL1        0.2526
     21 O          62.5260   84.0005   11.6155 O.3     1  UNL1       -0.4654
     22 C          63.4976   83.2007   10.7993 C.3     1  UNL1        0.2528
@<TRIPOS>BOND
     1     7     8    1
     2     8     1    1
     3     1     2   ar
     4     2     3   ar
     5     3     9    1
     6     9    10    2
     7    10    11    1
     8    11    12    2
     9    11    13    1
    10    13    14   ar
    11    14    15   ar
    12    15    16   ar
    13    16    17   ar
    14    17    18   ar
    15     3     4   ar
    16     4     5   ar
    17     5    19    1
    18    19    20    1
    19     5     6   ar
    20     6    21    1
    21    21    22    1
    22     6     1   ar
    23    18    13   ar
@<TRIPOS>MOLECULE
*****
 22 23 0 0 0
SMALL
GASTEIGER

@<TRIPOS>ATOM
      1 C          60.4160   89.0468    9.2502 C.ar    1  UNL1        0.1754
      2 C          61.3059   90.0085    9.9802 C.ar    1  UNL1        0.0403
      3 C          62.3111   89.4973   10.9693 C.ar    1  UNL1        0.0063
      4 C          62.4263   88.0244   11.2284 C.ar    1  UNL1        0.0403
      5 C          61.5363   87.0626   10.4984 C.ar    1  UNL1        0.1754
      6 C          60.5312   87.5738    9.5093 C.ar    1  UNL1        0.2061
      7 C          59.6788   89.4394    6.7900 C.3     1  UNL1        0.2526
      8 O          59.4108   89.5580    8.2611 O.3     1  UNL1       -0.4683
      9 C          63.2011   90.4591   11.6994 C.2     1  UNL1        0.0035
     10 C          64.1589   91.3234   10.9341 C.2     1  UNL1        0.0420
     11 C          65.0489   92.2851   11.6640 C.2     1  UNL1        0.1957
     12 O          64.9125   92.4546   13.1482 O.2     1  UNL1       -0.2866
     13 C          66.0752   93.0775   10.9099 C.ar    1  UNL1        0.0420
     14 C          67.2058   92.3749   10.2185 C.ar    1  UNL1        0.0239
     15 C          68.2321   93.1673    9.4643 C.ar    1  UNL1        0.0990
     16 N          68.1279   94.6623    9.4016 N.ar    1  UNL1       -0.2423
     17 C          66.9973   95.3650   10.0930 C.ar    1  UNL1        0.0990
     18 C          65.9709   94.5726   10.8471 C.ar    1  UNL1        0.0239
     19 O          61.6515   85.5896   10.7574 O.3     1  UNL1       -0.4683
     20 C          62.4916   85.0918   11.8960 C.3     1  UNL1        0.2526
     21 O          59.6412   86.6120    8.7792 O.3     1  UNL1       -0.4654
     22 C          60.1616   85.8663    7.5862 C.3     1  UNL1        0.2528
@<TRIPOS>BOND
     1     7     8    1
     2     8     1    1
     3     1     2   ar
     4     2     3   ar
     5     3     9    1
     6     9    10    2
     7    10    11    1
     8    11    12    2
     9    11    13    1
    10    13    14   ar
    11    14    15   ar
    12    15    16   ar
    13    16    17   ar
    14    17    18   ar
    15     3     4   ar
    16     4     5   ar
    17     5    19    1
    18    19    20    1
    19     5     6   ar
    20     6    21    1
    21    21    22    1
    22     6     1   ar
    23    18    13   ar
@<TRIPOS>MOLECULE
*****
 22 23 0 0 0
SMALL
GASTEIGER

@<TRIPOS>ATOM
      1 C          62.1451   88.1889   10.8024 C.ar    1  UNL1        0.1754
      2 C          62.8136   89.0009   11.8718 C.ar    1  UNL1        0.0403
      3 C          63.5002   88.3150   13.0155 C.ar    1  UNL1        0.0063
      4 C          63.5185   86.8170   13.0897 C.ar    1  UNL1        0.0403
      5 C          62.8501   86.0049   12.0203 C.ar    1  UNL1        0.1754
      6 C          62.1634   86.6909   10.8766 C.ar    1  UNL1        0.2061
      7 C          60.2947   89.7845    9.9194 C.3     1  UNL1        0.2526
      8 O          61.4585   88.8748    9.6587 O.3     1  UNL1       -0.4683
      9 C          64.1687   89.1272   14.0849 C.2     1  UNL1        0.0035
     10 C          63.8342   90.5809   14.2419 C.2     1  UNL1        0.0420
     11 C          64.5026   91.3931   15.3113 C.2     1  UNL1        0.1957
     12 O          63.7683   91.7124   16.5798 O.2     1  UNL1       -0.2866
     13 C          65.9053   91.8860   15.1122 C.ar    1  UNL1        0.0420
     14 C          66.6344   91.5789   13.8379 C.ar    1  UNL1        0.0239
     15 C          68.0371   92.0719   13.6389 C.ar    1  UNL1        0.0990
     16 N          68.7106   92.8719   14.7142 N.ar    1  UNL1       -0.2423
     17 C          67.9814   93.1790   15.9886 C.ar    1  UNL1        0.0990
     18 C          66.5787   92.6861   16.1877 C.ar    1  UNL1        0.0239
     19 O          62.8683   84.5068   12.0945 O.3     1  UNL1       -0.4683
     20 C          62.7704   83.8205   13.4247 C.3     1  UNL1        0.2526
     21 O          61.4950   85.8787    9.8072 O.3     1  UNL1       -0.4654
     22 C          62.1619   85.6977    8.4758 C.3     1  UNL1        0.2528
@<TRIPOS>BOND
     1     7     8    1
     2     8     1    1
     3     1     2   ar
     4     2     3   ar
     5     3     9    1
     6     9    10    2
     7    10    11    1
     8    11    12    2
     9    11    13    1
    10    13    14   ar
    11    14    15   ar
    12    15    16   ar
    13    16    17   ar
    14    17    18   ar
    15     3     4   ar
    16     4     5   ar
    17     5    19    1
    18    19    20    1
    19     5     6   ar
    20     6    21    1
    21    21    22    1
    22     6     1   ar
    23    18    13   ar
@<TRIPOS>MOLECULE
*****
 22 23 0 0 0
SMALL
GASTEIGER

@<TRIPOS>ATOM
      1 C          62.9059   85.9857   12.0902 C.ar    1  UNL1        0.1754
      2 C          63.5763   86.8150   13.1451 C.ar    1  UNL1        0.0403
      3 C          63.5393   88.3121   13.0582 C.ar    1  UNL1        0.0063
      4 C          62.8319   88.9798   11.9164 C.ar    1  UNL1        0.0403
      5 C          62.1615   88.1505   10.8615 C.ar    1  UNL1        0.1754
      6 C          62.1986   86.6535   10.9484 C.ar    1  UNL1        0.2061
      7 C          62.8838   83.8134   13.5151 C.3     1  UNL1        0.2526
      8 O          62.9430   84.4887   12.1771 O.3     1  UNL1       -0.4683
      9 C          64.2097   89.1414   14.1132 C.2     1  UNL1        0.0035
     10 C          63.8467   90.5880   14.2731 C.2     1  UNL1        0.0420
     11 C          64.5170   91.4172   15.3280 C.2     1  UNL1        0.1957
     12 O          63.7808   91.7673   16.5871 O.2     1  UNL1       -0.2866
     13 C          65.9237   91.8965   15.1238 C.ar    1  UNL1        0.0420
     14 C          66.6068   92.6949   16.1942 C.ar    1  UNL1        0.0239
     15 C          68.0135   93.1741   15.9900 C.ar    1  UNL1        0.0990
     16 N          68.7369   92.8551   14.7154 N.ar    1  UNL1       -0.2423
     17 C          68.0538   92.0567   13.6449 C.ar    1  UNL1        0.0990
     18 C          66.6471   91.5774   13.8491 C.ar    1  UNL1        0.0239
     19 O          61.4541   88.8182    9.7197 O.3     1  UNL1       -0.4683
     20 C          60.3267   89.7700    9.9895 C.3     1  UNL1        0.2526
     21 O          61.5281   85.8242    9.8934 O.3     1  UNL1       -0.4654
     22 C          62.1412   85.7072    8.5294 C.3     1  UNL1        0.2528
@<TRIPOS>BOND
     1     7     8    1
     2     8     1    1
     3     1     2   ar
     4     2     3   ar
     5     3     9    1
     6     9    10    2
     7    10    11    1
     8    11    12    2
     9    11    13    1
    10    13    14   ar
    11    14    15   ar
    12    15    16   ar
    13    16    17   ar
    14    17    18   ar
    15     3     4   ar
    16     4     5   ar
    17     5    19    1
    18    19    20    1
    19     5     6   ar
    20     6    21    1
    21    21    22    1
    22     6     1   ar
    23    18    13   ar
