@<TRIPOS>MOLECULE
*****
 44 49 0 0 0
SMALL
GASTEIGER

@<TRIPOS>ATOM
      1 N          73.0521   78.7822   11.7647 N.am    1  UNL1       -0.1892
      2 C          72.9746   79.5566   13.0470 C.2     1  UNL1        0.3220
      3 O          72.9492   81.0509   13.1744 O.2     1  UNL1       -0.2512
      4 N          72.9269   78.5742   14.1796 N.am    1  UNL1       -0.2222
      5 C          72.9750   77.1926   13.5973 C.3     1  UNL1        0.1391
      6 C          73.0297   75.8798   12.8739 C.3     1  UNL1        0.0449
      7 C          73.0047   74.5953   13.6481 C.3     1  UNL1        0.0746
      8 N          72.9251   74.6237   15.1457 N.3     1  UNL1       -0.2676
      9 C          72.8705   75.9366   15.8691 C.3     1  UNL1        0.0746
     10 C          72.8954   77.2210   15.0949 C.3     1  UNL1        0.0449
     11 C          73.0524   77.3212   12.1048 C.2     1  UNL1        0.2529
     12 O          73.1184   76.1877   11.1245 O.2     1  UNL1       -0.2724
     13 C          72.8455   78.9137   15.6384 C.ar    1  UNL1        0.1453
     14 C          71.9781   80.0482   16.0972 C.ar    1  UNL1        0.0922
     15 C          71.8967   80.3876   17.5560 C.ar    1  UNL1        0.2259
     16 O          71.0293   81.5221   18.0148 O.3     1  UNL1       -0.4919
     17 N          72.6828   79.5926   18.5561 N.ar    1  UNL1       -0.1894
     18 C          73.5502   78.4581   18.0973 C.ar    1  UNL1        0.2027
     19 N          73.6316   78.1187   16.6385 N.ar    1  UNL1       -0.2084
     20 H          70.5382   82.0187   17.3901 H       1  UNL1        0.2938
     21 C          73.2493   80.5342    7.6245 C.ar    1  UNL1        0.0811
     22 C          73.3956   79.0542    7.8204 C.ar    1  UNL1        0.0204
     23 C          73.3299   78.4702    9.2004 C.ar    1  UNL1        0.0185
     24 C          73.1179   79.3662   10.3846 C.ar    1  UNL1        0.0813
     25 C          72.9716   80.8460   10.1887 C.ar    1  UNL1        0.1141
     26 N          73.0373   81.4300    8.8087 N.ar    1  UNL1       -0.2425
     27 C          73.6269   78.7375    5.2518 C.3     1  UNL1        0.0311
     28 C          73.5038   80.2198    5.0581 C.ar    1  UNL1       -0.0204
     29 C          73.5696   80.8038    3.6780 C.ar    1  UNL1       -0.0031
     30 C          73.4465   82.2862    3.4842 C.ar    1  UNL1        0.0137
     31 C          73.2578   83.1846    4.6706 C.ar    1  UNL1        0.0012
     32 C          73.1920   82.6005    6.0507 C.ar    1  UNL1        0.0012
     33 C          73.3151   81.1182    6.2444 C.ar    1  UNL1        0.0137
     34 C          73.5123   82.8702    2.1042 C.2     1  UNL1        0.0729
     35 O          73.4589   84.3574    1.9158 O.co2   1  UNL1       -0.5446
     36 O          73.6314   81.9671    0.9124 O.co2   1  UNL1       -0.5446
     37 C          72.9002   73.3391   15.9199 C.3     1  UNL1        0.1183
     38 C          72.4502   73.3344   17.3508 C.ar    1  UNL1        0.0712
     39 N          73.4500   73.1332   18.4508 N.ar    1  UNL1       -0.2471
     40 C          72.9999   73.1285   19.8817 C.ar    1  UNL1        0.0985
     41 C          71.5502   73.3251   20.2126 C.ar    1  UNL1        0.0203
     42 C          70.5504   73.5263   19.1126 C.ar    1  UNL1       -0.0015
     43 C          71.0004   73.5310   17.6817 C.ar    1  UNL1       -0.0069
     44 C          70.0006   73.7323   16.5817 C.3     1  UNL1        0.0323
@<TRIPOS>UNITY_ATOM_ATTR
35 1
charge -1
@<TRIPOS>BOND
     1    27    28    1
     2    28    29   ar
     3    29    30   ar
     4    30    34    1
     5    34    35   ar
     6    34    36   ar
     7    30    31   ar
     8    31    32   ar
     9    32    33   ar
    10    33    21    1
    11    21    22   ar
    12    22    23   ar
    13    23    24   ar
    14    24     1    1
    15     1     2   am
    16     2     3    2
    17     2     4   am
    18     4    13    1
    19    13    14   ar
    20    14    15   ar
    21    15    16    1
    22    15    17   ar
    23    17    18   ar
    24    18    19   ar
    25     4     5    1
    26     5     6    1
    27     6     7    1
    28     7     8    1
    29     8    37    1
    30    37    38    1
    31    38    39   ar
    32    39    40   ar
    33    40    41   ar
    34    41    42   ar
    35    42    43   ar
    36    43    44    1
    37     8     9    1
    38     9    10    1
    39     5    11    1
    40    11    12    2
    41    24    25   ar
    42    25    26   ar
    43    33    28   ar
    44    26    21   ar
    45    11     1   am
    46    19    13   ar
    47    10     5    1
    48    43    38   ar
    49    16    20    1
