@<TRIPOS>MOLECULE
*****
 35 39 0 0 0
SMALL
GASTEIGER

@<TRIPOS>ATOM
      1 C          56.3040   93.3501   -4.3677 C.2     1  UNL1        0.0036
      2 C          56.1704   92.8502   -2.9597 C.2     1  UNL1        0.0036
      3 C          56.5233   92.5363   -1.5360 C.3     1  UNL1        0.1686
      4 O          57.3199   92.4462   -0.2683 O.3     1  UNL1       -0.3442
      5 C          58.4642   92.5907    0.6907 C.3     1  UNL1        0.1721
      6 C          59.8183   92.9526    1.2251 C.ar    1  UNL1        0.0425
      7 C          61.2187   93.4880    1.2706 C.ar    1  UNL1        0.0158
      8 C          62.4966   94.1325    0.8216 C.ar    1  UNL1        0.0504
      9 C          62.5264   93.6763    2.2939 C.ar    1  UNL1        0.0178
     10 C          61.5251   93.0005    3.1833 C.ar    1  UNL1        0.0379
     11 C          60.1711   92.6387    2.6488 C.ar    1  UNL1        0.1370
     12 N          63.4979   94.8083   -0.0677 N.pl3   1  UNL1       -0.2825
     13 C          64.0752   95.5321   -1.6316 C.ar    1  UNL1        0.2208
     14 N          65.4757   96.0675   -1.5861 N.ar    1  UNL1       -0.2120
     15 C          66.0794   96.6931   -2.8084 C.ar    1  UNL1        0.1035
     16 C          65.2828   96.7832   -4.0762 C.ar    1  UNL1        0.0430
     17 C          63.8824   96.2477   -4.1217 C.ar    1  UNL1        0.1201
     18 N          63.2786   95.6222   -2.8994 N.ar    1  UNL1       -0.2104
     19 C          63.0858   96.3379   -5.3895 C.ar    1  UNL1        0.1626
     20 C          63.2681   96.8534   -6.7862 C.ar    1  UNL1        0.0419
     21 C          61.9996   96.5962   -7.5445 C.ar    1  UNL1        0.0387
     22 C          60.5874   95.8314   -6.8828 C.ar    1  UNL1        0.1528
     23 O          61.9415   96.1933   -6.3484 O.2     1  UNL1       -0.4537
     24 C          59.1870   95.2960   -6.9283 C.3     1  UNL1        0.2064
     25 O          57.9090   94.6515   -6.4793 O.3     1  UNL1       -0.3409
     26 C          56.9078   93.9757   -5.5900 C.3     1  UNL1        0.1687
     27 H          64.2743   94.9244    0.5263 H       1  UNL1        0.1551
     28 O          59.1698   91.9628    3.5381 O.3     1  UNL1       -0.4742
     29 C          59.6099   91.3560    4.8374 C.3     1  UNL1        0.2226
     30 C          58.6842   90.4494    5.5933 C.3     1  UNL1        0.1200
     31 N          59.2157   89.5903    6.7021 N.3     1  UNL1       -0.2696
     32 C          59.9861   90.0693    7.8967 C.3     1  UNL1        0.0722
     33 C          60.3167   88.8763    8.7437 C.3     1  UNL1        0.0188
     34 C          59.7506   87.6600    8.0727 C.3     1  UNL1        0.0188
     35 C          59.0702   88.1013    6.8108 C.3     1  UNL1        0.0722
@<TRIPOS>BOND
     1     1     2    2
     2     2     3    1
     3     3     4    1
     4     4     5    1
     5     5     6    1
     6     6     7   ar
     7     7     8   ar
     8     8     9   ar
     9     9    10   ar
    10    10    11   ar
    11    11    28    1
    12    28    29    1
    13    29    30    1
    14    30    31    1
    15    31    32    1
    16    32    33    1
    17    33    34    1
    18    34    35    1
    19     8    12    1
    20    12    13    1
    21    13    14   ar
    22    14    15   ar
    23    15    16   ar
    24    16    17   ar
    25    17    18   ar
    26    17    19    1
    27    19    20   ar
    28    20    21   ar
    29    21    22   ar
    30    22    23   ar
    31    22    24    1
    32    24    25    1
    33    25    26    1
    34    26     1    1
    35    11     6   ar
    36    35    31    1
    37    18    13   ar
    38    23    19   ar
    39    12    27    1
