@<TRIPOS>MOLECULE
*****
 30 32 0 0 0
SMALL
GASTEIGER

@<TRIPOS>ATOM
      1 C          63.3377   84.1538   12.5659 C.3     1  UNL1        0.0503
      2 C          62.8303   82.7608   12.7938 C.ar    1  UNL1       -0.0220
      3 C          61.9054   82.4776   13.9403 C.ar    1  UNL1       -0.0043
      4 C          61.3980   81.0846   14.1682 C.ar    1  UNL1       -0.0003
      5 C          61.8154   79.9747   13.2495 C.ar    1  UNL1       -0.0003
      6 C          62.7402   80.2579   12.1030 C.ar    1  UNL1       -0.0046
      7 C          63.2476   81.6509   11.8751 C.ar    1  UNL1       -0.0255
      8 C          64.1724   81.9341   10.7286 C.3     1  UNL1        0.0307
      9 C          62.6844   85.0316   11.5399 C.ar    1  UNL1       -0.0181
     10 C          63.0282   84.8725   10.0886 C.ar    1  UNL1       -0.0043
     11 C          62.3749   85.7503    9.0625 C.ar    1  UNL1       -0.0042
     12 C          61.3779   86.7871    9.4878 C.ar    1  UNL1       -0.0166
     13 C          61.0341   86.9461   10.9393 C.ar    1  UNL1       -0.0042
     14 C          61.6874   86.0684   11.9653 C.ar    1  UNL1       -0.0043
     15 C          60.7246   87.6648    8.4618 C.3     1  UNL1        0.0679
     16 C          59.5170   87.1775    7.7173 C.2     1  UNL1        0.0547
     17 O          58.3452   88.0904    7.5093 O.co2   1  UNL1       -0.5488
     18 O          59.4813   85.7771    7.1809 O.co2   1  UNL1       -0.5488
     19 C          64.4985   84.6691   13.3641 C.3     1  UNL1        0.0578
     20 C          64.3551   84.8876   14.8412 C.2     1  UNL1        0.0975
     21 N          64.5700   83.7479   15.7923 N.2     1  UNL1       -0.0908
     22 O          64.7601   82.9790   15.7014 O.2     1  UNL1       -0.4090
     23 H          64.8466   82.4258   16.4527 H       1  UNL1        0.3278
     24 C          64.3687   90.0586   14.3300 C.3     1  UNL1        0.0521
     25 C          64.0035   88.8314   15.1115 C.ar    1  UNL1        0.0594
     26 C          64.3619   87.4731   14.5856 C.ar    1  UNL1        0.0160
     27 C          63.9966   86.2460   15.3671 C.ar    1  UNL1        0.0194
     28 C          63.2730   86.3771   16.6744 C.ar    1  UNL1        0.0219
     29 C          62.9146   87.7354   17.2003 C.ar    1  UNL1        0.0985
     30 N          63.2798   88.9625   16.4188 N.ar    1  UNL1       -0.2481
@<TRIPOS>UNITY_ATOM_ATTR
17 1
charge -1
@<TRIPOS>BOND
     1    24    25    1
     2    25    26   ar
     3    26    27   ar
     4    27    20    1
     5    20    19    1
     6    19     1    1
     7     1     9    1
     8     9    10   ar
     9    10    11   ar
    10    11    12   ar
    11    12    15    1
    12    15    16    1
    13    16    17   ar
    14    16    18   ar
    15    12    13   ar
    16    13    14   ar
    17     1     2    1
    18     2     3   ar
    19     3     4   ar
    20     4     5   ar
    21     5     6   ar
    22     6     7   ar
    23     7     8    1
    24    20    21    2
    25    21    22    1
    26    27    28   ar
    27    28    29   ar
    28    29    30   ar
    29    30    25   ar
    30    14     9   ar
    31     7     2   ar
    32    22    23    1
@<TRIPOS>MOLECULE
*****
 30 32 0 0 0
SMALL
GASTEIGER

@<TRIPOS>ATOM
      1 C          62.0765   86.7800   10.8891 C.3     1  UNL1        0.0503
      2 C          61.8690   86.2280    9.5100 C.ar    1  UNL1       -0.0220
      3 C          62.9713   85.4695    8.8320 C.ar    1  UNL1       -0.0043
      4 C          62.7638   84.9175    7.4528 C.ar    1  UNL1       -0.0003
      5 C          61.4539   85.1238    6.7516 C.ar    1  UNL1       -0.0003
      6 C          60.3516   85.8822    7.4296 C.ar    1  UNL1       -0.0046
      7 C          60.5591   86.4343    8.8088 C.ar    1  UNL1       -0.0255
      8 C          59.4568   87.1927    9.4868 C.3     1  UNL1        0.0307
      9 C          62.6010   88.1739   11.0680 C.ar    1  UNL1       -0.0181
     10 C          63.2123   88.5832   12.3751 C.ar    1  UNL1       -0.0043
     11 C          63.7369   89.9771   12.5540 C.ar    1  UNL1       -0.0042
     12 C          63.6501   90.9617   11.4257 C.ar    1  UNL1       -0.0166
     13 C          63.0387   90.5523   10.1185 C.ar    1  UNL1       -0.0042
     14 C          62.5142   89.1584    9.9397 C.ar    1  UNL1       -0.0043
     15 C          64.1746   92.3555   11.6045 C.3     1  UNL1        0.0679
     16 C          65.4902   92.5796   12.2893 C.2     1  UNL1        0.0547
     17 O          66.7572   92.6127   11.4870 O.co2   1  UNL1       -0.5488
     18 O          65.5388   92.7707   13.7763 O.co2   1  UNL1       -0.5488
     19 C          61.7595   85.9382   12.0895 C.3     1  UNL1        0.0578
     20 C          62.8142   85.0530   12.6845 C.2     1  UNL1        0.0975
     21 N          63.7220   85.5829   13.7545 N.2     1  UNL1       -0.0908
     22 O          63.7920   86.2863   14.1232 O.2     1  UNL1       -0.4090
     23 H          64.4471   86.4067   14.7822 H       1  UNL1        0.3278
     24 C          62.1016   79.9598   13.4274 C.3     1  UNL1        0.0521
     25 C          62.6048   81.0912   12.5808 C.ar    1  UNL1        0.0594
     26 C          62.4579   82.5064   13.0559 C.ar    1  UNL1        0.0160
     27 C          62.9612   83.6378   12.2093 C.ar    1  UNL1        0.0194
     28 C          63.6113   83.3540   10.8877 C.ar    1  UNL1        0.0219
     29 C          63.7582   81.9389   10.4126 C.ar    1  UNL1        0.0985
     30 N          63.2550   80.8075   11.2592 N.ar    1  UNL1       -0.2481
@<TRIPOS>UNITY_ATOM_ATTR
17 1
charge -1
@<TRIPOS>BOND
     1    24    25    1
     2    25    26   ar
     3    26    27   ar
     4    27    20    1
     5    20    19    1
     6    19     1    1
     7     1     9    1
     8     9    10   ar
     9    10    11   ar
    10    11    12   ar
    11    12    15    1
    12    15    16    1
    13    16    17   ar
    14    16    18   ar
    15    12    13   ar
    16    13    14   ar
    17     1     2    1
    18     2     3   ar
    19     3     4   ar
    20     4     5   ar
    21     5     6   ar
    22     6     7   ar
    23     7     8    1
    24    20    21    2
    25    21    22    1
    26    27    28   ar
    27    28    29   ar
    28    29    30   ar
    29    30    25   ar
    30    14     9   ar
    31     7     2   ar
    32    22    23    1
@<TRIPOS>MOLECULE
*****
 30 32 0 0 0
SMALL
GASTEIGER

@<TRIPOS>ATOM
      1 C          64.4676   90.8118   14.2951 C.3     1  UNL1        0.0503
      2 C          65.7595   91.4971   14.6288 C.ar    1  UNL1       -0.0220
      3 C          66.9316   91.3813   13.6999 C.ar    1  UNL1       -0.0043
      4 C          68.2235   92.0667   14.0335 C.ar    1  UNL1       -0.0003
      5 C          68.3433   92.8678   15.2961 C.ar    1  UNL1       -0.0003
      6 C          67.1712   92.9835   16.2249 C.ar    1  UNL1       -0.0046
      7 C          65.8793   92.2982   15.8913 C.ar    1  UNL1       -0.0255
      8 C          64.7072   92.4139   16.8201 C.3     1  UNL1        0.0307
      9 C          64.1587   89.4666   14.8825 C.ar    1  UNL1       -0.0181
     10 C          64.6181   88.2205   14.1854 C.ar    1  UNL1       -0.0043
     11 C          64.3092   86.8752   14.7728 C.ar    1  UNL1       -0.0042
     12 C          63.5408   86.7762   16.0572 C.ar    1  UNL1       -0.0166
     13 C          63.0814   88.0224   16.7543 C.ar    1  UNL1       -0.0042
     14 C          63.3903   89.3676   16.1670 C.ar    1  UNL1       -0.0043
     15 C          63.2319   85.4310   16.6446 C.3     1  UNL1        0.0679
     16 C          62.8412   84.2933   15.7486 C.2     1  UNL1        0.0547
     17 O          63.6988   83.0646   15.6793 O.co2   1  UNL1       -0.5488
     18 O          61.5928   84.3842   14.9219 O.co2   1  UNL1       -0.5488
     19 C          63.4846   91.4717   13.3741 C.3     1  UNL1        0.0578
     20 C          63.4343   91.0814   11.9266 C.2     1  UNL1        0.0975
     21 N          64.3973   91.6912   10.9516 N.2     1  UNL1       -0.0908
     22 O          64.9876   92.2232   11.0153 O.2     1  UNL1       -0.4090
     23 H          65.4785   92.4714   10.2567 H       1  UNL1        0.3278
     24 C          62.0047   86.1462   11.1521 C.3     1  UNL1        0.0521
     25 C          61.7063   87.6137   11.0669 C.ar    1  UNL1        0.0594
     26 C          62.7195   88.6138   11.5393 C.ar    1  UNL1        0.0160
     27 C          62.4210   90.0813   11.4542 C.ar    1  UNL1        0.0194
     28 C          61.1093   90.5488   10.8967 C.ar    1  UNL1        0.0219
     29 C          60.0961   89.5487   10.4243 C.ar    1  UNL1        0.0985
     30 N          60.3946   88.0812   10.5094 N.ar    1  UNL1       -0.2481
@<TRIPOS>UNITY_ATOM_ATTR
17 1
charge -1
@<TRIPOS>BOND
     1    24    25    1
     2    25    26   ar
     3    26    27   ar
     4    27    20    1
     5    20    19    1
     6    19     1    1
     7     1     9    1
     8     9    10   ar
     9    10    11   ar
    10    11    12   ar
    11    12    15    1
    12    15    16    1
    13    16    17   ar
    14    16    18   ar
    15    12    13   ar
    16    13    14   ar
    17     1     2    1
    18     2     3   ar
    19     3     4   ar
    20     4     5   ar
    21     5     6   ar
    22     6     7   ar
    23     7     8    1
    24    20    21    2
    25    21    22    1
    26    27    28   ar
    27    28    29   ar
    28    29    30   ar
    29    30    25   ar
    30    14     9   ar
    31     7     2   ar
    32    22    23    1
@<TRIPOS>MOLECULE
*****
 30 32 0 0 0
SMALL
GASTEIGER

@<TRIPOS>ATOM
      1 C          64.5033   90.8825   13.3672 C.3     1  UNL1        0.0503
      2 C          65.6203   91.4737   14.1752 C.ar    1  UNL1       -0.0220
      3 C          66.9831   91.6308   13.5685 C.ar    1  UNL1       -0.0043
      4 C          68.1002   92.2220   14.3765 C.ar    1  UNL1       -0.0003
      5 C          67.8543   92.6559   15.7912 C.ar    1  UNL1       -0.0003
      6 C          66.4916   92.4987   16.3978 C.ar    1  UNL1       -0.0046
      7 C          65.3745   91.9076   15.5898 C.ar    1  UNL1       -0.0255
      8 C          64.0118   91.7504   16.1965 C.3     1  UNL1        0.0307
      9 C          64.2160   89.4125   13.4475 C.ar    1  UNL1       -0.0181
     10 C          63.4183   88.7442   12.3673 C.ar    1  UNL1       -0.0043
     11 C          63.1310   87.2741   12.4475 C.ar    1  UNL1       -0.0042
     12 C          63.6413   86.4724   13.6081 C.ar    1  UNL1       -0.0166
     13 C          64.4390   87.1409   14.6884 C.ar    1  UNL1       -0.0042
     14 C          64.7263   88.6109   14.6081 C.ar    1  UNL1       -0.0043
     15 C          63.3540   85.0024   13.6884 C.3     1  UNL1        0.0679
     16 C          63.0325   84.3723   15.0111 C.2     1  UNL1        0.0547
     17 O          63.7438   83.1231   15.4394 O.co2   1  UNL1       -0.5488
     18 O          61.9995   84.9914   15.9055 O.co2   1  UNL1       -0.5488
     19 C          63.6736   91.7615   12.4789 C.3     1  UNL1        0.0578
     20 C          64.0877   91.9945   11.0562 C.2     1  UNL1        0.0975
     21 N          63.2690   91.4278    9.9343 N.2     1  UNL1       -0.0908
     22 O          62.6032   90.9907    9.9005 O.2     1  UNL1       -0.4090
     23 H          62.2507   90.7374    9.0701 H       1  UNL1        0.3278
     24 C          68.8580   92.3151    9.0211 C.3     1  UNL1        0.0521
     25 C          67.7057   92.9545    9.7377 C.ar    1  UNL1        0.0594
     26 C          66.4729   92.1549   10.0387 C.ar    1  UNL1        0.0160
     27 C          65.3206   92.7942   10.7553 C.ar    1  UNL1        0.0194
     28 C          65.4012   94.2332   11.1710 C.ar    1  UNL1        0.0219
     29 C          66.6341   95.0328   10.8700 C.ar    1  UNL1        0.0985
     30 N          67.7863   94.3934   10.1534 N.ar    1  UNL1       -0.2481
@<TRIPOS>UNITY_ATOM_ATTR
17 1
charge -1
@<TRIPOS>BOND
     1    24    25    1
     2    25    26   ar
     3    26    27   ar
     4    27    20    1
     5    20    19    1
     6    19     1    1
     7     1     9    1
     8     9    10   ar
     9    10    11   ar
    10    11    12   ar
    11    12    15    1
    12    15    16    1
    13    16    17   ar
    14    16    18   ar
    15    12    13   ar
    16    13    14   ar
    17     1     2    1
    18     2     3   ar
    19     3     4   ar
    20     4     5   ar
    21     5     6   ar
    22     6     7   ar
    23     7     8    1
    24    20    21    2
    25    21    22    1
    26    27    28   ar
    27    28    29   ar
    28    29    30   ar
    29    30    25   ar
    30    14     9   ar
    31     7     2   ar
    32    22    23    1
@<TRIPOS>MOLECULE
*****
 30 32 0 0 0
SMALL
GASTEIGER

@<TRIPOS>ATOM
      1 C          64.4295   90.6261   13.2283 C.3     1  UNL1        0.0503
      2 C          65.0481   91.8495   12.6194 C.ar    1  UNL1       -0.0220
      3 C          64.8364   92.1525   11.1656 C.ar    1  UNL1       -0.0043
      4 C          65.4551   93.3758   10.5567 C.ar    1  UNL1       -0.0003
      5 C          66.2853   94.2961   11.4016 C.ar    1  UNL1       -0.0003
      6 C          66.4969   93.9931   12.8553 C.ar    1  UNL1       -0.0046
      7 C          65.8783   92.7698   13.4642 C.ar    1  UNL1       -0.0255
      8 C          66.0900   92.4667   14.9179 C.3     1  UNL1        0.0307
      9 C          63.2966   89.9326   12.5316 C.ar    1  UNL1       -0.0181
     10 C          62.0484   90.6915   12.1912 C.ar    1  UNL1       -0.0043
     11 C          60.9154   89.9980   11.4944 C.ar    1  UNL1       -0.0042
     12 C          61.0308   88.5455   11.1381 C.ar    1  UNL1       -0.0166
     13 C          62.2791   87.7865   11.4785 C.ar    1  UNL1       -0.0042
     14 C          63.4119   88.4801   12.1753 C.ar    1  UNL1       -0.0043
     15 C          59.8979   87.8519   10.4413 C.3     1  UNL1        0.0679
     16 C          59.8570   87.8023    8.9427 C.2     1  UNL1        0.0547
     17 O          60.0742   89.0536    8.1447 O.co2   1  UNL1       -0.5488
     18 O          59.5988   86.5013    8.2422 O.co2   1  UNL1       -0.5488
     19 C          64.9439   90.0964   14.5341 C.3     1  UNL1        0.0578
     20 C          63.9819   89.7166   15.6205 C.2     1  UNL1        0.0975
     21 N          63.2810   90.7834   16.4084 N.2     1  UNL1       -0.0908
     22 O          63.2922   91.5803   16.3936 O.2     1  UNL1       -0.4090
     23 H          62.7607   92.0675   16.9919 H       1  UNL1        0.3278
     24 C          64.6203   84.6940   14.4517 C.3     1  UNL1        0.0521
     25 C          64.0400   85.7587   15.3347 C.ar    1  UNL1        0.0594
     26 C          64.3011   87.2052   15.0361 C.ar    1  UNL1        0.0160
     27 C          63.7208   88.2699   15.9192 C.ar    1  UNL1        0.0194
     28 C          62.8795   87.8880   17.1008 C.ar    1  UNL1        0.0219
     29 C          62.6184   86.4414   17.3994 C.ar    1  UNL1        0.0985
     30 N          63.1987   85.3768   16.5163 N.ar    1  UNL1       -0.2481
@<TRIPOS>UNITY_ATOM_ATTR
17 1
charge -1
@<TRIPOS>BOND
     1    24    25    1
     2    25    26   ar
     3    26    27   ar
     4    27    20    1
     5    20    19    1
     6    19     1    1
     7     1     9    1
     8     9    10   ar
     9    10    11   ar
    10    11    12   ar
    11    12    15    1
    12    15    16    1
    13    16    17   ar
    14    16    18   ar
    15    12    13   ar
    16    13    14   ar
    17     1     2    1
    18     2     3   ar
    19     3     4   ar
    20     4     5   ar
    21     5     6   ar
    22     6     7   ar
    23     7     8    1
    24    20    21    2
    25    21    22    1
    26    27    28   ar
    27    28    29   ar
    28    29    30   ar
    29    30    25   ar
    30    14     9   ar
    31     7     2   ar
    32    22    23    1
@<TRIPOS>MOLECULE
*****
 30 32 0 0 0
SMALL
GASTEIGER

@<TRIPOS>ATOM
      1 C          65.9098   92.4472   11.9020 C.3     1  UNL1        0.0503
      2 C          66.4316   93.6039   11.1022 C.ar    1  UNL1       -0.0220
      3 C          65.9592   94.9960   11.4007 C.ar    1  UNL1       -0.0043
      4 C          66.4810   96.1528   10.6009 C.ar    1  UNL1       -0.0003
      5 C          67.4752   95.9174    9.5025 C.ar    1  UNL1       -0.0003
      6 C          67.9475   94.5254    9.2040 C.ar    1  UNL1       -0.0046
      7 C          67.4257   93.3687   10.0038 C.ar    1  UNL1       -0.0255
      8 C          67.8980   91.9766    9.7054 C.3     1  UNL1        0.0307
      9 C          64.5956   91.8194   11.5433 C.ar    1  UNL1       -0.0181
     10 C          63.7448   91.1984   12.6112 C.ar    1  UNL1       -0.0043
     11 C          62.4305   90.5706   12.2525 C.ar    1  UNL1       -0.0042
     12 C          61.9671   90.5638   10.8259 C.ar    1  UNL1       -0.0166
     13 C          62.8180   91.1849    9.7579 C.ar    1  UNL1       -0.0042
     14 C          64.1322   91.8127   10.1167 C.ar    1  UNL1       -0.0043
     15 C          60.6529   89.9360   10.4671 C.3     1  UNL1        0.0679
     16 C          59.5045   89.9982   11.4300 C.2     1  UNL1        0.0547
     17 O          58.6812   91.2476   11.5357 O.co2   1  UNL1       -0.5488
     18 O          59.1792   88.8109   12.2871 O.co2   1  UNL1       -0.5488
     19 C          66.7023   91.9183   13.0606 C.3     1  UNL1        0.0578
     20 C          66.1846   92.0793   14.4592 C.2     1  UNL1        0.0975
     21 N          66.6233   93.2475   15.2915 N.2     1  UNL1       -0.0908
     22 O          67.1107   93.8656   15.1651 O.2     1  UNL1       -0.4090
     23 H          67.2479   94.4998   15.8411 H       1  UNL1        0.3278
     24 C          64.3174   87.2323   14.6040 C.3     1  UNL1        0.0521
     25 C          64.2946   88.6485   15.0979 C.ar    1  UNL1        0.0594
     26 C          65.2510   89.6558   14.5316 C.ar    1  UNL1        0.0160
     27 C          65.2282   91.0720   15.0255 C.ar    1  UNL1        0.0194
     28 C          64.2491   91.4808   16.0857 C.ar    1  UNL1        0.0219
     29 C          63.2927   90.4736   16.6520 C.ar    1  UNL1        0.0985
     30 N          63.3155   89.0574   16.1581 N.ar    1  UNL1       -0.2481
@<TRIPOS>UNITY_ATOM_ATTR
17 1
charge -1
@<TRIPOS>BOND
     1    24    25    1
     2    25    26   ar
     3    26    27   ar
     4    27    20    1
     5    20    19    1
     6    19     1    1
     7     1     9    1
     8     9    10   ar
     9    10    11   ar
    10    11    12   ar
    11    12    15    1
    12    15    16    1
    13    16    17   ar
    14    16    18   ar
    15    12    13   ar
    16    13    14   ar
    17     1     2    1
    18     2     3   ar
    19     3     4   ar
    20     4     5   ar
    21     5     6   ar
    22     6     7   ar
    23     7     8    1
    24    20    21    2
    25    21    22    1
    26    27    28   ar
    27    28    29   ar
    28    29    30   ar
    29    30    25   ar
    30    14     9   ar
    31     7     2   ar
    32    22    23    1
@<TRIPOS>MOLECULE
*****
 30 32 0 0 0
SMALL
GASTEIGER

@<TRIPOS>ATOM
      1 C          63.4573   89.4762   13.2462 C.3     1  UNL1        0.0503
      2 C          64.3761   90.5211   13.8067 C.ar    1  UNL1       -0.0220
      3 C          65.3928   91.1787   12.9213 C.ar    1  UNL1       -0.0043
      4 C          66.3115   92.2236   13.4818 C.ar    1  UNL1       -0.0003
      5 C          66.2135   92.6108   14.9277 C.ar    1  UNL1       -0.0003
      6 C          65.1969   91.9531   15.8130 C.ar    1  UNL1       -0.0046
      7 C          64.2781   90.9083   15.2525 C.ar    1  UNL1       -0.0255
      8 C          63.2614   90.2506   16.1378 C.3     1  UNL1        0.0307
      9 C          63.7169   88.0245   13.5199 C.ar    1  UNL1       -0.0181
     10 C          63.1304   86.9755   12.6223 C.ar    1  UNL1       -0.0043
     11 C          63.3899   85.5237   12.8959 C.ar    1  UNL1       -0.0042
     12 C          64.2360   85.1208   14.0672 C.ar    1  UNL1       -0.0166
     13 C          64.8225   86.1699   14.9649 C.ar    1  UNL1       -0.0042
     14 C          64.5629   87.6216   14.6912 C.ar    1  UNL1       -0.0043
     15 C          64.4955   83.6691   14.3409 C.3     1  UNL1        0.0679
     16 C          63.4985   82.6347   13.9098 C.2     1  UNL1        0.0547
     17 O          62.3690   82.2559   14.8212 O.co2   1  UNL1       -0.5488
     18 O          63.6310   81.9790   12.5671 O.co2   1  UNL1       -0.5488
     19 C          62.2790   89.8832   12.4119 C.3     1  UNL1        0.0578
     20 C          62.3667   89.8337   10.9153 C.2     1  UNL1        0.0975
     21 N          63.0663   90.9304   10.1683 N.2     1  UNL1       -0.0908
     22 O          63.4402   91.5992   10.3883 O.2     1  UNL1       -0.4090
     23 H          63.8185   92.1595    9.7396 H       1  UNL1        0.3278
     24 C          62.8859   85.3422    8.3547 C.3     1  UNL1        0.0521
     25 C          62.0145   86.4418    8.8853 C.ar    1  UNL1        0.0594
     26 C          62.6263   87.5879    9.6350 C.ar    1  UNL1        0.0160
     27 C          61.7549   88.6875   10.1656 C.ar    1  UNL1        0.0194
     28 C          60.2717   88.6410    9.9465 C.ar    1  UNL1        0.0219
     29 C          59.6600   87.4948    9.1969 C.ar    1  UNL1        0.0985
     30 N          60.5314   86.3952    8.6662 N.ar    1  UNL1       -0.2481
@<TRIPOS>UNITY_ATOM_ATTR
17 1
charge -1
@<TRIPOS>BOND
     1    24    25    1
     2    25    26   ar
     3    26    27   ar
     4    27    20    1
     5    20    19    1
     6    19     1    1
     7     1     9    1
     8     9    10   ar
     9    10    11   ar
    10    11    12   ar
    11    12    15    1
    12    15    16    1
    13    16    17   ar
    14    16    18   ar
    15    12    13   ar
    16    13    14   ar
    17     1     2    1
    18     2     3   ar
    19     3     4   ar
    20     4     5   ar
    21     5     6   ar
    22     6     7   ar
    23     7     8    1
    24    20    21    2
    25    21    22    1
    26    27    28   ar
    27    28    29   ar
    28    29    30   ar
    29    30    25   ar
    30    14     9   ar
    31     7     2   ar
    32    22    23    1
@<TRIPOS>MOLECULE
*****
 30 32 0 0 0
SMALL
GASTEIGER

@<TRIPOS>ATOM
      1 C          62.8090   89.9694   12.8445 C.3     1  UNL1        0.0503
      2 C          62.2689   88.8615   11.9895 C.ar    1  UNL1       -0.0220
      3 C          62.9859   87.5455   11.9260 C.ar    1  UNL1       -0.0043
      4 C          62.4458   86.4376   11.0710 C.ar    1  UNL1       -0.0003
      5 C          61.1887   86.6459   10.2794 C.ar    1  UNL1       -0.0003
      6 C          60.4718   87.9620   10.3429 C.ar    1  UNL1       -0.0046
      7 C          61.0119   89.0698   11.1979 C.ar    1  UNL1       -0.0255
      8 C          60.2950   90.3858   11.2614 C.3     1  UNL1        0.0307
      9 C          63.8533   90.8973   12.2983 C.ar    1  UNL1       -0.0181
     10 C          63.7452   91.4023   10.8900 C.ar    1  UNL1       -0.0043
     11 C          64.7895   92.3303   10.3438 C.ar    1  UNL1       -0.0042
     12 C          65.9419   92.7532   11.2058 C.ar    1  UNL1       -0.0166
     13 C          66.0500   92.2481   12.6142 C.ar    1  UNL1       -0.0042
     14 C          65.0057   91.3202   13.1603 C.ar    1  UNL1       -0.0043
     15 C          66.9862   93.6811   10.6596 C.3     1  UNL1        0.0679
     16 C          67.6442   93.3796    9.3458 C.2     1  UNL1        0.0547
     17 O          67.5714   94.3738    8.2250 O.co2   1  UNL1       -0.5488
     18 O          68.3749   92.0839    9.1528 O.co2   1  UNL1       -0.5488
     19 C          62.3048   90.1492   14.2457 C.3     1  UNL1        0.0578
     20 C          63.1866   89.8070   15.4098 C.2     1  UNL1        0.0975
     21 N          63.8331   90.9002   16.2079 N.2     1  UNL1       -0.0908
     22 O          63.8253   91.6961   16.1648 O.2     1  UNL1       -0.4090
     23 H          64.3146   92.2036   16.7821 H       1  UNL1        0.3278
     24 C          65.3459   85.1951   14.3762 C.3     1  UNL1        0.0521
     25 C          64.5016   86.0655   15.2591 C.ar    1  UNL1        0.0594
     26 C          64.2662   87.5010   14.8930 C.ar    1  UNL1        0.0160
     27 C          63.4220   88.3714   15.7760 C.ar    1  UNL1        0.0194
     28 C          62.8131   87.8064   17.0249 C.ar    1  UNL1        0.0219
     29 C          63.0484   86.3710   17.3910 C.ar    1  UNL1        0.0985
     30 N          63.8927   85.5005   16.5080 N.ar    1  UNL1       -0.2481
@<TRIPOS>UNITY_ATOM_ATTR
17 1
charge -1
@<TRIPOS>BOND
     1    24    25    1
     2    25    26   ar
     3    26    27   ar
     4    27    20    1
     5    20    19    1
     6    19     1    1
     7     1     9    1
     8     9    10   ar
     9    10    11   ar
    10    11    12   ar
    11    12    15    1
    12    15    16    1
    13    16    17   ar
    14    16    18   ar
    15    12    13   ar
    16    13    14   ar
    17     1     2    1
    18     2     3   ar
    19     3     4   ar
    20     4     5   ar
    21     5     6   ar
    22     6     7   ar
    23     7     8    1
    24    20    21    2
    25    21    22    1
    26    27    28   ar
    27    28    29   ar
    28    29    30   ar
    29    30    25   ar
    30    14     9   ar
    31     7     2   ar
    32    22    23    1
@<TRIPOS>MOLECULE
*****
 30 32 0 0 0
SMALL
GASTEIGER

@<TRIPOS>ATOM
      1 C          63.5251   89.6672   12.5278 C.3     1  UNL1        0.0503
      2 C          64.3742   90.7523   13.1208 C.ar    1  UNL1       -0.0220
      3 C          64.6926   90.7388   14.5866 C.ar    1  UNL1       -0.0043
      4 C          65.5417   91.8238   15.1797 C.ar    1  UNL1       -0.0003
      5 C          66.0723   92.9224   14.3069 C.ar    1  UNL1       -0.0003
      6 C          65.7538   92.9359   12.8412 C.ar    1  UNL1       -0.0046
      7 C          64.9048   91.8508   12.2482 C.ar    1  UNL1       -0.0255
      8 C          64.5863   91.8643   10.7825 C.3     1  UNL1        0.0307
      9 C          63.6374   88.2622   13.0408 C.ar    1  UNL1       -0.0181
     10 C          63.0980   87.1220   12.2290 C.ar    1  UNL1       -0.0043
     11 C          63.2102   85.7169   12.7421 C.ar    1  UNL1       -0.0042
     12 C          63.8618   85.4520   14.0669 C.ar    1  UNL1       -0.0166
     13 C          64.4012   86.5923   14.8787 C.ar    1  UNL1       -0.0042
     14 C          64.2890   87.9973   14.3657 C.ar    1  UNL1       -0.0043
     15 C          63.9741   84.0470   14.5799 C.3     1  UNL1        0.0679
     16 C          63.6254   82.8927   13.6877 C.2     1  UNL1        0.0547
     17 O          64.4728   82.5898   12.4877 O.co2   1  UNL1       -0.5488
     18 O          62.4293   82.0414   13.9956 O.co2   1  UNL1       -0.5488
     19 C          62.5638   89.9872   11.4216 C.3     1  UNL1        0.0578
     20 C          61.1896   89.3859   11.4249 C.2     1  UNL1        0.0975
     21 N          60.3303   89.4854   12.6503 N.2     1  UNL1       -0.0908
     22 O          60.4300   89.8095   13.3718 O.2     1  UNL1       -0.4090
     23 H          59.7443   89.7561   14.0081 H       1  UNL1        0.3278
     24 C          59.2997   89.5776    6.5884 C.3     1  UNL1        0.0521
     25 C          59.7297   88.7810    7.7844 C.ar    1  UNL1        0.0594
     26 C          60.2446   89.4817    9.0066 C.ar    1  UNL1        0.0160
     27 C          60.6747   88.6851   10.2026 C.ar    1  UNL1        0.0194
     28 C          60.5899   87.1878   10.1765 C.ar    1  UNL1        0.0219
     29 C          60.0750   86.4870    8.9543 C.ar    1  UNL1        0.0985
     30 N          59.6449   87.2837    7.7582 N.ar    1  UNL1       -0.2481
@<TRIPOS>UNITY_ATOM_ATTR
17 1
charge -1
@<TRIPOS>BOND
     1    24    25    1
     2    25    26   ar
     3    26    27   ar
     4    27    20    1
     5    20    19    1
     6    19     1    1
     7     1     9    1
     8     9    10   ar
     9    10    11   ar
    10    11    12   ar
    11    12    15    1
    12    15    16    1
    13    16    17   ar
    14    16    18   ar
    15    12    13   ar
    16    13    14   ar
    17     1     2    1
    18     2     3   ar
    19     3     4   ar
    20     4     5   ar
    21     5     6   ar
    22     6     7   ar
    23     7     8    1
    24    20    21    2
    25    21    22    1
    26    27    28   ar
    27    28    29   ar
    28    29    30   ar
    29    30    25   ar
    30    14     9   ar
    31     7     2   ar
    32    22    23    1
