@<TRIPOS>MOLECULE
*****
 26 28 0 0 0
SMALL
GASTEIGER

@<TRIPOS>ATOM
      1 C          63.2105   89.5741   16.8006 C.3     1  UNL1        0.0522
      2 C          63.5961   90.0848   15.4439 C.ar    1  UNL1        0.0625
      3 C          64.5631   91.2246   15.3186 C.ar    1  UNL1        0.0522
      4 C          64.9487   91.7353   13.9620 C.ar    1  UNL1        0.1483
      5 C          64.3673   91.1062   12.7306 C.ar    1  UNL1        0.0612
      6 C          63.4003   89.9664   12.8559 C.ar    1  UNL1        0.1374
      7 N          63.0147   89.4557   14.2126 N.ar    1  UNL1       -0.2449
      8 C          62.8189   89.3373   11.6246 C.2     1  UNL1        0.2684
      9 O          62.8138   90.0915   10.3280 O.2     1  UNL1       -0.2681
     10 N          62.2426   87.9540   11.6898 N.am    1  UNL1       -0.2646
     11 H          62.2459   87.4590   12.5408 H       1  UNL1        0.1566
     12 C          61.6611   87.3249   10.4585 C.ar    1  UNL1        0.1346
     13 C          62.4839   86.3718    9.6432 C.ar    1  UNL1        0.0368
     14 C          61.9025   85.7427    8.4119 C.ar    1  UNL1        0.0341
     15 C          60.4982   86.0667    7.9959 C.ar    1  UNL1        0.1593
     16 F          59.9168   85.4376    6.7645 F       1  UNL1       -0.2025
     17 C          59.6754   87.0197    8.8111 C.ar    1  UNL1        0.1298
     18 N          60.2569   87.6488   10.0424 N.ar    1  UNL1       -0.2267
     19 O          65.9158   92.8751   13.8367 O.3     1  UNL1       -0.4502
     20 C          66.3704   93.3273   12.4807 C.ar    1  UNL1        0.1834
     21 C          66.0333   94.7070   11.9981 C.ar    1  UNL1        0.1392
     22 N          66.4880   95.1593   10.6421 N.ar    1  UNL1       -0.2259
     23 C          67.2798   94.2317    9.7686 C.ar    1  UNL1        0.1399
     24 C          67.7344   94.6840    8.4126 C.3     1  UNL1        0.0737
     25 N          67.6169   92.8521   10.2512 N.ar    1  UNL1       -0.2259
     26 C          67.1622   92.3999   11.6072 C.ar    1  UNL1        0.1392
@<TRIPOS>BOND
     1     1     2    1
     2     2     3   ar
     3     3     4   ar
     4     4    19    1
     5    19    20    1
     6    20    21   ar
     7    21    22   ar
     8    22    23   ar
     9    23    24    1
    10    23    25   ar
    11    25    26   ar
    12     4     5   ar
    13     5     6   ar
    14     6     8    1
    15     8     9    2
    16     8    10   am
    17    10    12    1
    18    12    13   ar
    19    13    14   ar
    20    14    15   ar
    21    15    16    1
    22    15    17   ar
    23    17    18   ar
    24     6     7   ar
    25     7     2   ar
    26    26    20   ar
    27    18    12   ar
    28    10    11    1
@<TRIPOS>MOLECULE
*****
 26 28 0 0 0
SMALL
GASTEIGER

@<TRIPOS>ATOM
      1 C          58.8353   90.8611   11.5949 C.3     1  UNL1        0.0522
      2 C          60.1601   90.2126   11.3220 C.ar    1  UNL1        0.0625
      3 C          61.3514   91.0564   10.9776 C.ar    1  UNL1        0.0522
      4 C          62.6762   90.4079   10.7047 C.ar    1  UNL1        0.1483
      5 C          62.8096   88.9156   10.7763 C.ar    1  UNL1        0.0612
      6 C          61.6183   88.0718   11.1208 C.ar    1  UNL1        0.1374
      7 N          60.2935   88.7203   11.3936 N.ar    1  UNL1       -0.2449
      8 C          61.7517   86.5794   11.1924 C.2     1  UNL1        0.2684
      9 O          61.0481   85.7145   10.1888 O.2     1  UNL1       -0.2681
     10 N          62.5886   85.9519   12.2674 N.am    1  UNL1       -0.2646
     11 H          63.0504   86.5196   12.9261 H       1  UNL1        0.1566
     12 C          62.7220   84.4595   12.3390 C.ar    1  UNL1        0.1346
     13 C          63.2427   83.6955   11.1579 C.ar    1  UNL1        0.0368
     14 C          63.3760   82.2032   11.2295 C.ar    1  UNL1        0.0341
     15 C          62.9887   81.4749   12.4823 C.ar    1  UNL1        0.1593
     16 F          63.1221   79.9825   12.5539 F       1  UNL1       -0.2025
     17 C          62.4680   82.2389   13.6635 C.ar    1  UNL1        0.1298
     18 N          62.3347   83.7312   13.5918 N.ar    1  UNL1       -0.2267
     19 O          63.8676   91.2518   10.3603 O.3     1  UNL1       -0.4502
     20 C          64.7010   91.8541   11.4524 C.ar    1  UNL1        0.1834
     21 C          64.4139   91.5193   12.8862 C.ar    1  UNL1        0.1392
     22 N          65.2473   92.1217   13.9783 N.ar    1  UNL1       -0.2259
     23 C          66.3678   93.0587   13.6366 C.ar    1  UNL1        0.1399
     24 C          67.2012   93.6610   14.7287 C.3     1  UNL1        0.0737
     25 N          66.6547   93.3934   12.2029 N.ar    1  UNL1       -0.2259
     26 C          65.8213   92.7911   11.1108 C.ar    1  UNL1        0.1392
@<TRIPOS>BOND
     1     1     2    1
     2     2     3   ar
     3     3     4   ar
     4     4    19    1
     5    19    20    1
     6    20    21   ar
     7    21    22   ar
     8    22    23   ar
     9    23    24    1
    10    23    25   ar
    11    25    26   ar
    12     4     5   ar
    13     5     6   ar
    14     6     8    1
    15     8     9    2
    16     8    10   am
    17    10    12    1
    18    12    13   ar
    19    13    14   ar
    20    14    15   ar
    21    15    16    1
    22    15    17   ar
    23    17    18   ar
    24     6     7   ar
    25     7     2   ar
    26    26    20   ar
    27    18    12   ar
    28    10    11    1
@<TRIPOS>MOLECULE
*****
 26 28 0 0 0
SMALL
GASTEIGER

@<TRIPOS>ATOM
      1 C          58.9487   90.8590   11.5527 C.3     1  UNL1        0.0522
      2 C          60.2261   90.0749   11.4933 C.ar    1  UNL1        0.0625
      3 C          60.3378   88.8914   10.5786 C.ar    1  UNL1        0.0522
      4 C          61.6151   88.1072   10.5192 C.ar    1  UNL1        0.1483
      5 C          62.7808   88.5066   11.3746 C.ar    1  UNL1        0.0612
      6 C          62.6691   89.6901   12.2893 C.ar    1  UNL1        0.1374
      7 N          61.3917   90.4743   12.3487 N.ar    1  UNL1       -0.2449
      8 C          63.8348   90.0896   13.1447 C.2     1  UNL1        0.2684
      9 O          64.3946   89.1247   14.1475 O.2     1  UNL1       -0.2681
     10 N          64.4405   91.4539   12.9974 N.am    1  UNL1       -0.2646
     11 H          64.0731   92.0871   12.3392 H       1  UNL1        0.1566
     12 C          65.6062   91.8533   13.8528 C.ar    1  UNL1        0.1346
     13 C          66.9938   91.8400   13.2833 C.ar    1  UNL1        0.0368
     14 C          68.1594   92.2394   14.1387 C.ar    1  UNL1        0.0341
     15 C          67.9374   92.6522   15.5636 C.ar    1  UNL1        0.1593
     16 F          69.1031   93.0516   16.4191 F       1  UNL1       -0.2025
     17 C          66.5498   92.6655   16.1331 C.ar    1  UNL1        0.1298
     18 N          65.3842   92.2661   15.2777 N.ar    1  UNL1       -0.2267
     19 O          61.7268   86.9237    9.6044 O.3     1  UNL1       -0.4502
     20 C          62.3478   85.6505   10.0977 C.ar    1  UNL1        0.1834
     21 C          62.1101   85.1973   11.5078 C.ar    1  UNL1        0.1392
     22 N          62.7311   83.9241   12.0011 N.ar    1  UNL1       -0.2259
     23 C          63.5898   83.1041   11.0843 C.ar    1  UNL1        0.1399
     24 C          64.2108   81.8309   11.5776 C.3     1  UNL1        0.0737
     25 N          63.8274   83.5573    9.6743 N.ar    1  UNL1       -0.2259
     26 C          63.2064   84.8305    9.1810 C.ar    1  UNL1        0.1392
@<TRIPOS>BOND
     1     1     2    1
     2     2     3   ar
     3     3     4   ar
     4     4    19    1
     5    19    20    1
     6    20    21   ar
     7    21    22   ar
     8    22    23   ar
     9    23    24    1
    10    23    25   ar
    11    25    26   ar
    12     4     5   ar
    13     5     6   ar
    14     6     8    1
    15     8     9    2
    16     8    10   am
    17    10    12    1
    18    12    13   ar
    19    13    14   ar
    20    14    15   ar
    21    15    16    1
    22    15    17   ar
    23    17    18   ar
    24     6     7   ar
    25     7     2   ar
    26    26    20   ar
    27    18    12   ar
    28    10    11    1
@<TRIPOS>MOLECULE
*****
 26 28 0 0 0
SMALL
GASTEIGER

@<TRIPOS>ATOM
      1 C          62.7341   87.4445   18.6431 C.3     1  UNL1        0.0522
      2 C          63.1239   87.5994   17.2030 C.ar    1  UNL1        0.0625
      3 C          63.3247   88.9682   16.6234 C.ar    1  UNL1        0.0522
      4 C          63.7146   89.1231   15.1833 C.ar    1  UNL1        0.1483
      5 C          63.9036   87.9092   14.3227 C.ar    1  UNL1        0.0612
      6 C          63.7028   86.5404   14.9022 C.ar    1  UNL1        0.1374
      7 N          63.3129   86.3855   16.3424 N.ar    1  UNL1       -0.2449
      8 C          63.8918   85.3264   14.0417 C.2     1  UNL1        0.2684
      9 O          65.1827   84.5642   14.0932 O.2     1  UNL1       -0.2681
     10 N          62.7900   84.8747   13.1296 N.am    1  UNL1       -0.2646
     11 H          61.9428   85.3750   13.0958 H       1  UNL1        0.1566
     12 C          62.9790   83.6607   12.2690 C.ar    1  UNL1        0.1346
     13 C          63.6605   83.7833   10.9384 C.ar    1  UNL1        0.0368
     14 C          63.8495   82.5694   10.0779 C.ar    1  UNL1        0.0341
     15 C          63.3570   81.2328   10.5480 C.ar    1  UNL1        0.1593
     16 F          63.5461   80.0188    9.6874 F       1  UNL1       -0.2025
     17 C          62.6756   81.1101   11.8786 C.ar    1  UNL1        0.1298
     18 N          62.4866   82.3241   12.7391 N.ar    1  UNL1       -0.2267
     19 O          63.9154   90.4921   14.6037 O.3     1  UNL1       -0.4502
     20 C          65.1515   91.2737   14.9371 C.ar    1  UNL1        0.1834
     21 C          65.2184   92.0640   16.2103 C.ar    1  UNL1        0.1392
     22 N          66.4545   92.8457   16.5438 N.ar    1  UNL1       -0.2259
     23 C          67.6236   92.8370   15.6040 C.ar    1  UNL1        0.1399
     24 C          68.8597   93.6186   15.9374 C.3     1  UNL1        0.0737
     25 N          67.5566   92.0467   14.3308 N.ar    1  UNL1       -0.2259
     26 C          66.3205   91.2651   13.9974 C.ar    1  UNL1        0.1392
@<TRIPOS>BOND
     1     1     2    1
     2     2     3   ar
     3     3     4   ar
     4     4    19    1
     5    19    20    1
     6    20    21   ar
     7    21    22   ar
     8    22    23   ar
     9    23    24    1
    10    23    25   ar
    11    25    26   ar
    12     4     5   ar
    13     5     6   ar
    14     6     8    1
    15     8     9    2
    16     8    10   am
    17    10    12    1
    18    12    13   ar
    19    13    14   ar
    20    14    15   ar
    21    15    16    1
    22    15    17   ar
    23    17    18   ar
    24     6     7   ar
    25     7     2   ar
    26    26    20   ar
    27    18    12   ar
    28    10    11    1
@<TRIPOS>MOLECULE
*****
 26 28 0 0 0
SMALL
GASTEIGER

@<TRIPOS>ATOM
      1 C          59.8905   90.6975   10.8372 C.3     1  UNL1        0.0522
      2 C          61.0512   89.9078   11.3655 C.ar    1  UNL1        0.0625
      3 C          62.2179   90.6150   11.9889 C.ar    1  UNL1        0.0522
      4 C          63.3786   89.8253   12.5172 C.ar    1  UNL1        0.1483
      5 C          63.3726   88.3284   12.4221 C.ar    1  UNL1        0.0612
      6 C          62.2060   87.6212   11.7987 C.ar    1  UNL1        0.1374
      7 N          61.0453   88.4109   11.2704 N.ar    1  UNL1       -0.2449
      8 C          62.1999   86.1241   11.7036 C.2     1  UNL1        0.2684
      9 O          61.6477   85.4525   10.4813 O.2     1  UNL1       -0.2681
     10 N          62.7462   85.2988   12.8307 N.am    1  UNL1       -0.2646
     11 H          63.1086   85.7396   13.6329 H       1  UNL1        0.1566
     12 C          62.7401   83.8018   12.7356 C.ar    1  UNL1        0.1346
     13 C          63.1551   83.1296   11.4605 C.ar    1  UNL1        0.0368
     14 C          63.1490   81.6327   11.3654 C.ar    1  UNL1        0.0341
     15 C          62.7281   80.8079   12.5455 C.ar    1  UNL1        0.1593
     16 F          62.7221   79.3109   12.4504 F       1  UNL1       -0.2025
     17 C          62.3132   81.4801   13.8206 C.ar    1  UNL1        0.1298
     18 N          62.3192   82.9770   13.9157 N.ar    1  UNL1       -0.2267
     19 O          64.5453   90.5326   13.1406 O.3     1  UNL1       -0.4502
     20 C          65.0928   91.7777   12.5080 C.ar    1  UNL1        0.1834
     21 C          64.8483   92.0497   11.0532 C.ar    1  UNL1        0.1392
     22 N          65.3957   93.2947   10.4207 N.ar    1  UNL1       -0.2259
     23 C          66.1876   94.2679   11.2430 C.ar    1  UNL1        0.1399
     24 C          66.7350   95.5129   10.6104 C.3     1  UNL1        0.0737
     25 N          66.4320   93.9959   12.6977 N.ar    1  UNL1       -0.2259
     26 C          65.8846   92.7508   13.3302 C.ar    1  UNL1        0.1392
@<TRIPOS>BOND
     1     1     2    1
     2     2     3   ar
     3     3     4   ar
     4     4    19    1
     5    19    20    1
     6    20    21   ar
     7    21    22   ar
     8    22    23   ar
     9    23    24    1
    10    23    25   ar
    11    25    26   ar
    12     4     5   ar
    13     5     6   ar
    14     6     8    1
    15     8     9    2
    16     8    10   am
    17    10    12    1
    18    12    13   ar
    19    13    14   ar
    20    14    15   ar
    21    15    16    1
    22    15    17   ar
    23    17    18   ar
    24     6     7   ar
    25     7     2   ar
    26    26    20   ar
    27    18    12   ar
    28    10    11    1
@<TRIPOS>MOLECULE
*****
 26 28 0 0 0
SMALL
GASTEIGER

@<TRIPOS>ATOM
      1 C          62.7166   90.6093   10.0461 C.3     1  UNL1        0.0522
      2 C          63.0841   90.0805   11.4008 C.ar    1  UNL1        0.0625
      3 C          63.4307   91.0310   12.5082 C.ar    1  UNL1        0.0522
      4 C          63.7982   90.5022   13.8629 C.ar    1  UNL1        0.1483
      5 C          63.8191   89.0229   14.1102 C.ar    1  UNL1        0.0612
      6 C          63.4725   88.0724   13.0028 C.ar    1  UNL1        0.1374
      7 N          63.1050   88.6012   11.6481 N.ar    1  UNL1       -0.2449
      8 C          63.4934   86.5930   13.2501 C.2     1  UNL1        0.2684
      9 O          64.3446   86.0282   14.3484 O.2     1  UNL1       -0.2681
     10 N          62.6630   85.6786   12.3991 N.am    1  UNL1       -0.2646
     11 H          62.1043   86.0493   11.6782 H       1  UNL1        0.1566
     12 C          62.6839   84.1992   12.6464 C.ar    1  UNL1        0.1346
     13 C          62.9986   83.2555   11.5237 C.ar    1  UNL1        0.0368
     14 C          63.0195   81.7762   11.7711 C.ar    1  UNL1        0.0341
     15 C          62.7256   81.2406   13.1410 C.ar    1  UNL1        0.1593
     16 F          62.7465   79.7612   13.3883 F       1  UNL1       -0.2025
     17 C          62.4109   82.1843   14.2637 C.ar    1  UNL1        0.1298
     18 N          62.3900   83.6636   14.0163 N.ar    1  UNL1       -0.2267
     19 O          64.1448   91.4527   14.9704 O.3     1  UNL1       -0.4502
     20 C          65.5454   91.9738   15.1005 C.ar    1  UNL1        0.1834
     21 C          66.5123   91.8177   13.9644 C.ar    1  UNL1        0.1392
     22 N          67.9129   92.3388   14.0946 N.ar    1  UNL1       -0.2259
     23 C          68.3464   93.0161   15.3609 C.ar    1  UNL1        0.1399
     24 C          69.7470   93.5372   15.4911 C.3     1  UNL1        0.0737
     25 N          67.3795   93.1722   16.4969 N.ar    1  UNL1       -0.2259
     26 C          65.9789   92.6511   16.3667 C.ar    1  UNL1        0.1392
@<TRIPOS>BOND
     1     1     2    1
     2     2     3   ar
     3     3     4   ar
     4     4    19    1
     5    19    20    1
     6    20    21   ar
     7    21    22   ar
     8    22    23   ar
     9    23    24    1
    10    23    25   ar
    11    25    26   ar
    12     4     5   ar
    13     5     6   ar
    14     6     8    1
    15     8     9    2
    16     8    10   am
    17    10    12    1
    18    12    13   ar
    19    13    14   ar
    20    14    15   ar
    21    15    16    1
    22    15    17   ar
    23    17    18   ar
    24     6     7   ar
    25     7     2   ar
    26    26    20   ar
    27    18    12   ar
    28    10    11    1
@<TRIPOS>MOLECULE
*****
 26 28 0 0 0
SMALL
GASTEIGER

@<TRIPOS>ATOM
      1 C          59.1706   88.4034    7.6303 C.3     1  UNL1        0.0522
      2 C          60.3174   88.0081    8.5126 C.ar    1  UNL1        0.0625
      3 C          61.0132   86.6970    8.2960 C.ar    1  UNL1        0.0522
      4 C          62.1600   86.3017    9.1784 C.ar    1  UNL1        0.1483
      5 C          62.6110   87.2175   10.2774 C.ar    1  UNL1        0.0612
      6 C          61.9153   88.5285   10.4940 C.ar    1  UNL1        0.1374
      7 N          60.7685   88.9238    9.6117 N.ar    1  UNL1       -0.2449
      8 C          62.3664   89.4444   11.5931 C.2     1  UNL1        0.2684
      9 O          61.9984   90.8981   11.5563 O.2     1  UNL1       -0.2681
     10 N          63.1853   88.9065   12.7288 N.am    1  UNL1       -0.2646
     11 H          63.4268   87.9524   12.7529 H       1  UNL1        0.1566
     12 C          63.6364   89.8223   13.8279 C.ar    1  UNL1        0.1346
     13 C          64.7911   90.7527   13.6024 C.ar    1  UNL1        0.0368
     14 C          65.2421   91.6685   14.7014 C.ar    1  UNL1        0.0341
     15 C          64.5383   91.6539   16.0260 C.ar    1  UNL1        0.1593
     16 F          64.9894   92.5697   17.1250 F       1  UNL1       -0.2025
     17 C          63.3836   90.7235   16.2515 C.ar    1  UNL1        0.1298
     18 N          62.9326   89.8078   15.1525 N.ar    1  UNL1       -0.2267
     19 O          62.8557   84.9905    8.9617 O.3     1  UNL1       -0.4502
     20 C          63.1674   84.1046   10.1313 C.ar    1  UNL1        0.1834
     21 C          62.3452   84.1974   11.3825 C.ar    1  UNL1        0.1392
     22 N          62.6569   83.3115   12.5521 N.ar    1  UNL1       -0.2259
     23 C          63.7906   82.3327   12.4705 C.ar    1  UNL1        0.1399
     24 C          64.1022   81.4467   13.6401 C.3     1  UNL1        0.0737
     25 N          64.6127   82.2398   11.2193 N.ar    1  UNL1       -0.2259
     26 C          64.3010   83.1258   10.0497 C.ar    1  UNL1        0.1392
@<TRIPOS>BOND
     1     1     2    1
     2     2     3   ar
     3     3     4   ar
     4     4    19    1
     5    19    20    1
     6    20    21   ar
     7    21    22   ar
     8    22    23   ar
     9    23    24    1
    10    23    25   ar
    11    25    26   ar
    12     4     5   ar
    13     5     6   ar
    14     6     8    1
    15     8     9    2
    16     8    10   am
    17    10    12    1
    18    12    13   ar
    19    13    14   ar
    20    14    15   ar
    21    15    16    1
    22    15    17   ar
    23    17    18   ar
    24     6     7   ar
    25     7     2   ar
    26    26    20   ar
    27    18    12   ar
    28    10    11    1
@<TRIPOS>MOLECULE
*****
 26 28 0 0 0
SMALL
GASTEIGER

@<TRIPOS>ATOM
      1 C          60.8883   84.8469    7.0803 C.3     1  UNL1        0.0522
      2 C          60.6606   86.2089    7.6659 C.ar    1  UNL1        0.0625
      3 C          59.6574   87.1346    7.0441 C.ar    1  UNL1        0.0522
      4 C          59.4298   88.4966    7.6297 C.ar    1  UNL1        0.1483
      5 C          60.2054   88.9331    8.8372 C.ar    1  UNL1        0.0612
      6 C          61.2086   88.0074    9.4590 C.ar    1  UNL1        0.1374
      7 N          61.4362   86.6453    8.8733 N.ar    1  UNL1       -0.2449
      8 C          61.9842   88.4438   10.6665 C.2     1  UNL1        0.2684
      9 O          62.4616   87.4259   11.6594 O.2     1  UNL1       -0.2681
     10 N          62.2825   89.8981   10.8810 N.am    1  UNL1       -0.2646
     11 H          61.9692   90.5662   10.2293 H       1  UNL1        0.1566
     12 C          63.0582   90.3345   12.0885 C.ar    1  UNL1        0.1346
     13 C          64.1830   91.3160   11.9429 C.ar    1  UNL1        0.0368
     14 C          64.9586   91.7524   13.1504 C.ar    1  UNL1        0.0341
     15 C          64.6093   91.2071   14.5035 C.ar    1  UNL1        0.1593
     16 F          65.3850   91.6435   15.7110 F       1  UNL1       -0.2025
     17 C          63.4845   90.2256   14.6490 C.ar    1  UNL1        0.1298
     18 N          62.7090   89.7892   13.4416 N.ar    1  UNL1       -0.2267
     19 O          58.4265   89.4223    7.0079 O.3     1  UNL1       -0.4502
     20 C          58.8574   90.3932    5.9488 C.ar    1  UNL1        0.1834
     21 C          60.3081   90.5127    5.5864 C.ar    1  UNL1        0.1392
     22 N          60.7391   91.4836    4.5273 N.ar    1  UNL1       -0.2259
     23 C          59.7193   92.3351    3.8308 C.ar    1  UNL1        0.1399
     24 C          60.1503   93.3061    2.7717 C.3     1  UNL1        0.0737
     25 N          58.2687   92.2157    4.1933 N.ar    1  UNL1       -0.2259
     26 C          57.8378   91.2447    5.2523 C.ar    1  UNL1        0.1392
@<TRIPOS>BOND
     1     1     2    1
     2     2     3   ar
     3     3     4   ar
     4     4    19    1
     5    19    20    1
     6    20    21   ar
     7    21    22   ar
     8    22    23   ar
     9    23    24    1
    10    23    25   ar
    11    25    26   ar
    12     4     5   ar
    13     5     6   ar
    14     6     8    1
    15     8     9    2
    16     8    10   am
    17    10    12    1
    18    12    13   ar
    19    13    14   ar
    20    14    15   ar
    21    15    16    1
    22    15    17   ar
    23    17    18   ar
    24     6     7   ar
    25     7     2   ar
    26    26    20   ar
    27    18    12   ar
    28    10    11    1
@<TRIPOS>MOLECULE
*****
 26 28 0 0 0
SMALL
GASTEIGER

@<TRIPOS>ATOM
      1 C          63.5457   90.5351   16.3851 C.3     1  UNL1        0.0522
      2 C          63.5962   89.4557   15.3448 C.ar    1  UNL1        0.0625
      3 C          64.2588   88.1461   15.6543 C.ar    1  UNL1        0.0522
      4 C          64.3093   87.0667   14.6139 C.ar    1  UNL1        0.1483
      5 C          63.6972   87.2969   13.2640 C.ar    1  UNL1        0.0612
      6 C          63.0346   88.6065   12.9545 C.ar    1  UNL1        0.1374
      7 N          62.9841   89.6859   13.9949 N.ar    1  UNL1       -0.2449
      8 C          62.4224   88.8368   11.6046 C.2     1  UNL1        0.2684
      9 O          63.0605   89.7976   10.6457 O.2     1  UNL1       -0.2681
     10 N          61.1721   88.1062   11.2136 N.am    1  UNL1       -0.2646
     11 H          60.7532   87.4755   11.8429 H       1  UNL1        0.1566
     12 C          60.5599   88.3364    9.8636 C.ar    1  UNL1        0.1346
     13 C          60.1282   87.1688    9.0268 C.ar    1  UNL1        0.0368
     14 C          59.5161   87.3991    7.6770 C.ar    1  UNL1        0.0341
     15 C          59.3356   88.7970    7.1639 C.ar    1  UNL1        0.1593
     16 F          58.7234   89.0272    5.8139 F       1  UNL1       -0.2025
     17 C          59.7673   89.9646    8.0006 C.ar    1  UNL1        0.1298
     18 N          60.3794   89.7343    9.3505 N.ar    1  UNL1       -0.2267
     19 O          64.9720   85.7571   14.9235 O.3     1  UNL1       -0.4502
     20 C          64.3072   84.4698   14.5349 C.ar    1  UNL1        0.1834
     21 C          63.2270   83.8924   15.4008 C.ar    1  UNL1        0.1392
     22 N          62.5622   82.6051   15.0123 N.ar    1  UNL1       -0.2259
     23 C          62.9776   81.8953   13.7578 C.ar    1  UNL1        0.1399
     24 C          62.3128   80.6081   13.3692 C.3     1  UNL1        0.0737
     25 N          64.0578   82.4728   12.8919 N.ar    1  UNL1       -0.2259
     26 C          64.7226   83.7600   13.2805 C.ar    1  UNL1        0.1392
@<TRIPOS>BOND
     1     1     2    1
     2     2     3   ar
     3     3     4   ar
     4     4    19    1
     5    19    20    1
     6    20    21   ar
     7    21    22   ar
     8    22    23   ar
     9    23    24    1
    10    23    25   ar
    11    25    26   ar
    12     4     5   ar
    13     5     6   ar
    14     6     8    1
    15     8     9    2
    16     8    10   am
    17    10    12    1
    18    12    13   ar
    19    13    14   ar
    20    14    15   ar
    21    15    16    1
    22    15    17   ar
    23    17    18   ar
    24     6     7   ar
    25     7     2   ar
    26    26    20   ar
    27    18    12   ar
    28    10    11    1
