@<TRIPOS>MOLECULE
*****
 68 73 0 0 0
SMALL
GASTEIGER

@<TRIPOS>ATOM
      1 C          62.8084   84.0883   15.2192 C.3     1  UNL1        0.2087
      2 O          62.9220   85.2690   16.1375 O.3     1  UNL1       -0.4464
      3 C          63.0173   86.7326   16.4514 C.2     1  UNL1        0.3537
      4 O          63.1010   86.7479   17.9491 O.2     1  UNL1       -0.2467
      5 C          63.0753   88.1894   16.0990 C.3     1  UNL1        0.2718
      6 C          63.1463   87.9814   17.5827 C.3     1  UNL1        0.0548
      7 F          63.1852   89.4942   16.8307 F       1  UNL1       -0.2210
      8 C          63.0845   89.3509   15.1498 C.2     1  UNL1        0.1924
      9 O          63.1982   90.5315   16.0681 O.2     1  UNL1       -0.2926
     10 C          63.0432   89.9870   13.7919 C.3     1  UNL1        0.0904
     11 C          63.1385   91.4506   14.1060 C.3     1  UNL1        0.0105
     12 C          62.9595   89.9716   12.2943 C.3     1  UNL1        0.1494
     13 C          62.8500   89.3080   10.9536 C.3     1  UNL1        0.1189
     14 C          62.9221   90.8004   10.8220 C.3     1  UNL1        0.0322
     15 C          62.7364   88.1273   10.0354 C.3     1  UNL1        0.0353
     16 C          62.6411   86.6636    9.7214 C.3     1  UNL1        0.0419
     17 C          62.5574   86.6483    8.2238 C.3     1  UNL1        0.0061
     18 C          62.5831   85.2068   10.0738 C.2     1  UNL1        0.0778
     19 N          62.4736   84.5431    8.7331 N.2     1  UNL1       -0.0916
     20 C          62.5739   84.0453   11.0230 C.3     1  UNL1        0.0832
     21 C          62.4602   82.8647   10.1047 C.3     1  UNL1        0.0099
     22 C          62.6152   83.4093   12.3809 C.3     1  UNL1        0.2172
     23 O          62.5146   81.9800   11.9368 O.3     1  UNL1       -0.4177
     24 C          62.5361   81.1121   13.1600 C.2     1  UNL1        0.5118
     25 O          62.4575   79.6143   13.1798 O.2     1  UNL1       -0.2028
     26 O          62.6500   82.0049   14.3600 O.3     1  UNL1       -0.4181
     27 C          62.6989   83.4246   13.8785 C.3     1  UNL1        0.2124
     28 C          62.7450   82.8501   15.2633 C.3     1  UNL1        0.0514
     29 C          64.0432   82.1137   16.3707 C.3     1  UNL1        0.0040
     30 C          62.7991   82.9269   16.1684 C.3     1  UNL1        0.0474
     31 O          62.4487   85.3741    7.4846 O.2     1  UNL1       -0.3737
     32 C          62.0138   84.7633    6.1856 C.3     1  UNL1        0.2885
     33 O          63.0175   91.4285   11.9419 O.3     1  UNL1       -0.3283
     34 C          64.3189   92.1695   12.0273 C.3     1  UNL1        0.2643
     35 O          64.9637   92.4014   13.3616 O.3     1  UNL1       -0.3311
     36 C          66.2651   93.1425   13.4470 C.3     1  UNL1        0.1194
     37 C          66.9099   93.3744   14.7813 C.3     1  UNL1        0.0322
     38 C          66.9216   93.6515   12.1981 C.3     1  UNL1        0.0482
     39 C          66.2768   93.4196   10.8637 C.3     1  UNL1        0.0921
     40 C          64.9754   92.6786   10.7783 C.3     1  UNL1        0.1815
     41 O          64.3306   92.4467    9.4441 O.3     1  UNL1       -0.3783
     42 H          63.5024   91.9566    9.5660 H       1  UNL1        0.2106
     43 N          66.9333   93.9286    9.6149 N.3     1  UNL1       -0.2692
     44 C          66.5125   95.2439    9.0289 C.3     1  UNL1        0.0897
     45 C          68.0106   93.1226    8.9517 C.3     1  UNL1        0.0897
     46 O          62.7932   89.7348    9.5168 O.3     1  UNL1       -0.3514
     47 C          61.4735   90.0617    8.8831 C.3     1  UNL1        0.1682
     48 C          61.4312   90.7408    7.5463 C.2     1  UNL1        0.0056
     49 C          60.3841   90.3572    6.5431 C.2     1  UNL1       -0.0021
     50 C          60.3418   91.0364    5.2062 C.ar    1  UNL1       -0.0000
     51 C          59.0226   91.3311    4.5561 C.ar    1  UNL1        0.0015
     52 C          58.9804   92.0102    3.2194 C.ar    1  UNL1        0.0173
     53 C          60.2574   92.3946    2.5327 C.ar    1  UNL1        0.0629
     54 C          61.5767   92.0999    3.1829 C.ar    1  UNL1        0.0549
     55 C          61.6189   91.4208    4.5197 C.ar    1  UNL1        0.0046
     56 C          62.8537   92.4843    2.4962 C.ar    1  UNL1        0.2028
     57 O          64.1729   92.1896    3.1464 O.2     1  UNL1       -0.2863
     58 C          62.8114   93.1634    1.1595 C.ar    1  UNL1        0.1092
     59 C          61.4922   93.4582    0.5093 C.ar    1  UNL1        0.0836
     60 N          60.2152   93.0737    1.1960 N.ar    1  UNL1       -0.3276
     61 C          64.0884   93.5479    0.4728 C.2     1  UNL1        0.2473
     62 N          65.3575   92.8103    0.7815 N.am    1  UNL1       -0.3252
     63 O          64.0963   94.6701   -0.5226 O.2     1  UNL1       -0.2702
     64 H          65.3523   92.0738    1.4348 H       1  UNL1        0.1453
     65 H          66.1956   93.0626    0.3308 H       1  UNL1        0.1453
     66 C          58.8959   93.3685    0.5457 C.3     1  UNL1        0.0856
     67 C          57.5880   92.8922   -0.0133 C.3     1  UNL1        0.0245
     68 C          57.9188   94.3552   -0.0214 C.3     1  UNL1        0.0245
@<TRIPOS>BOND
     1    29    30    1
     2     1    30    1
     3     1     2    1
     4     2     3    1
     5     3     4    2
     6     3     5    1
     7     5     6    1
     8     5     7    1
     9     5     8    1
    10     8     9    2
    11     8    10    1
    12    10    11    1
    13    10    12    1
    14    12    33    1
    15    34    33    1
    16    34    35    1
    17    35    36    1
    18    36    37    1
    19    36    38    1
    20    38    39    1
    21    39    43    1
    22    43    44    1
    23    43    45    1
    24    39    40    1
    25    40    41    1
    26    12    13    1
    27    13    14    1
    28    13    46    1
    29    46    47    1
    30    47    48    1
    31    48    49    2
    32    49    50    1
    33    50    51   ar
    34    51    52   ar
    35    52    53   ar
    36    53    54   ar
    37    54    55   ar
    38    54    56   ar
    39    56    57    2
    40    56    58   ar
    41    58    61    1
    42    61    62   am
    43    61    63    2
    44    58    59   ar
    45    59    60   ar
    46    60    66    1
    47    66    67    1
    48    67    68    1
    49    13    15    1
    50    15    16    1
    51    16    17    1
    52    16    18    1
    53    18    19    2
    54    19    31    1
    55    31    32    1
    56    18    20    1
    57    20    21    1
    58    20    22    1
    59    22    23    1
    60    23    24    1
    61    24    25    2
    62    24    26    1
    63    26    27    1
    64    27    28    1
    65    27     1    1
    66    40    34    1
    67    55    50   ar
    68    68    66    1
    69    27    22    1
    70    60    53   ar
    71    41    42    1
    72    62    64    1
    73    62    65    1
