@<TRIPOS>MOLECULE
*****
 32 35 0 0 0
SMALL
GASTEIGER

@<TRIPOS>ATOM
      1 N          64.5562   89.9289   14.6592 N.am    1  UNL1       -0.2658
      2 C          64.1548   88.5149   14.3601 C.2     1  UNL1        0.3083
      3 O          63.8907   88.0935   12.9448 O.2     1  UNL1       -0.2521
      4 N          64.0175   87.5222   15.4761 N.am    1  UNL1       -0.2667
      5 H          64.7295   90.2054   15.5880 H       1  UNL1        0.1565
      6 H          64.1908   87.7987   16.4050 H       1  UNL1        0.1565
      7 C          65.6768   92.0484   13.6583 C.ar    1  UNL1        0.1040
      8 C          64.6935   90.9216   13.5430 C.ar    1  UNL1        0.0871
      9 C          63.8476   90.7874   12.3117 C.ar    1  UNL1        0.1165
     10 N          63.9849   91.7802   11.1955 N.ar    1  UNL1       -0.2236
     11 C          64.9682   92.9070   11.3108 C.ar    1  UNL1        0.1660
     12 C          65.3221   94.0294   10.3808 C.ar    1  UNL1        0.0713
     13 C          66.3868   94.8572   11.0374 C.ar    1  UNL1        0.1613
     14 CL         67.0338   96.0809   10.4596 Cl      1  UNL1       -0.0594
     15 N          66.6909   94.2464   12.3732 N.ar    1  UNL1       -0.1523
     16 N          65.8142   93.0411   12.5423 N.ar    1  UNL1       -0.2118
     17 C          66.5228   92.1826   14.8897 C.3     1  UNL1        0.1564
     18 C          65.9062   92.6449   16.1766 C.3     1  UNL1        0.0387
     19 C          68.9936   92.8295   15.3658 C.3     1  UNL1        0.1745
     20 O          67.9855   91.8544   14.8343 O.3     1  UNL1       -0.3476
     21 C          63.6160   86.1081   15.1770 C.ar    1  UNL1        0.0719
     22 C          62.8820   85.3029   16.2078 C.ar    1  UNL1        0.1153
     23 N          62.4805   83.8889   15.9087 N.ar    1  UNL1       -0.2216
     24 C          62.8132   83.2801   14.5787 C.ar    1  UNL1        0.1944
     25 C          63.5474   84.0854   13.5479 C.ar    1  UNL1        0.0964
     26 CL         63.8801   83.4767   12.2180 Cl      1  UNL1       -0.0789
     27 C          63.9488   85.4995   13.8470 C.ar    1  UNL1        0.0308
     28 N          62.4118   81.8662   14.2796 N.ar    1  UNL1       -0.1288
     29 N          63.3450   80.7218   14.0156 N.ar    1  UNL1       -0.1432
     30 C          62.5167   79.4966   13.7648 C.ar    1  UNL1        0.1447
     31 C          61.0716   79.8838   13.8739 C.ar    1  UNL1        0.1447
     32 N          61.0068   81.3482   14.1921 N.ar    1  UNL1       -0.1432
@<TRIPOS>BOND
     1    19    20    1
     2    20    17    1
     3    17    18    1
     4    17     7    1
     5     7     8   ar
     6     8     1    1
     7     1     2   am
     8     2     3    2
     9     2     4   am
    10     4    21    1
    11    21    22   ar
    12    22    23   ar
    13    23    24   ar
    14    24    28    1
    15    28    29   ar
    16    29    30   ar
    17    30    31   ar
    18    31    32   ar
    19    24    25   ar
    20    25    26    1
    21    25    27   ar
    22     8     9   ar
    23     9    10   ar
    24    10    11   ar
    25    11    12   ar
    26    12    13   ar
    27    13    14    1
    28    13    15   ar
    29    15    16   ar
    30    16     7   ar
    31    27    21   ar
    32    16    11   ar
    33    32    28   ar
    34     1     5    1
    35     4     6    1
@<TRIPOS>MOLECULE
*****
 32 35 0 0 0
SMALL
GASTEIGER

@<TRIPOS>ATOM
      1 N          59.2030   89.8060    7.6047 N.am    1  UNL1       -0.2658
      2 C          59.7523   90.2971    6.2982 C.2     1  UNL1        0.3083
      3 O          60.8970   89.5781    5.6480 O.2     1  UNL1       -0.2521
      4 N          59.1568   91.5073    5.6417 N.am    1  UNL1       -0.2667
      5 H          58.4517   90.2780    8.0314 H       1  UNL1        0.1565
      6 H          58.4055   91.9792    6.0684 H       1  UNL1        0.1565
      7 C          60.6350   88.7482    9.4969 C.ar    1  UNL1        0.1040
      8 C          59.7985   88.5958    8.2612 C.ar    1  UNL1        0.0871
      9 C          59.5576   87.2334    7.6819 C.ar    1  UNL1        0.1165
     10 N          60.1531   86.0232    8.3384 N.ar    1  UNL1       -0.2236
     11 C          60.9895   86.1756    9.5741 C.ar    1  UNL1        0.1660
     12 C          61.7014   85.1737   10.4341 C.ar    1  UNL1        0.0713
     13 C          62.3822   85.9171   11.5449 C.ar    1  UNL1        0.1613
     14 CL         63.2090   85.3064   12.6374 Cl      1  UNL1       -0.0594
     15 N          62.0912   87.3783   11.3714 N.ar    1  UNL1       -0.1523
     16 N          61.2305   87.5381   10.1534 N.ar    1  UNL1       -0.2118
     17 C          60.8759   90.1107   10.0762 C.3     1  UNL1        0.1564
     18 C          62.2723   90.6507   10.1674 C.3     1  UNL1        0.0387
     19 C          58.9942   90.5383   11.8160 C.3     1  UNL1        0.1745
     20 O          59.7203   90.9333   10.5643 O.3     1  UNL1       -0.3476
     21 C          59.7061   91.9984    4.3351 C.ar    1  UNL1        0.0719
     22 C          58.7801   92.5509    3.2924 C.ar    1  UNL1        0.1153
     23 N          59.3293   93.0420    1.9859 N.ar    1  UNL1       -0.2216
     24 C          60.8047   92.9806    1.7220 C.ar    1  UNL1        0.1944
     25 C          61.7307   92.4282    2.7647 C.ar    1  UNL1        0.0964
     26 CL         63.2061   92.3668    2.5008 Cl      1  UNL1       -0.0789
     27 C          61.1814   91.9370    4.0713 C.ar    1  UNL1        0.0308
     28 N          61.3539   93.4718    0.4154 N.ar    1  UNL1       -0.1288
     29 N          61.3796   92.7056   -0.8739 N.ar    1  UNL1       -0.1432
     30 C          62.0155   93.5756   -1.9174 C.ar    1  UNL1        0.1447
     31 C          62.3827   94.8793   -1.2730 C.ar    1  UNL1        0.1447
     32 N          61.9738   94.8152    0.1688 N.ar    1  UNL1       -0.1432
@<TRIPOS>BOND
     1    19    20    1
     2    20    17    1
     3    17    18    1
     4    17     7    1
     5     7     8   ar
     6     8     1    1
     7     1     2   am
     8     2     3    2
     9     2     4   am
    10     4    21    1
    11    21    22   ar
    12    22    23   ar
    13    23    24   ar
    14    24    28    1
    15    28    29   ar
    16    29    30   ar
    17    30    31   ar
    18    31    32   ar
    19    24    25   ar
    20    25    26    1
    21    25    27   ar
    22     8     9   ar
    23     9    10   ar
    24    10    11   ar
    25    11    12   ar
    26    12    13   ar
    27    13    14    1
    28    13    15   ar
    29    15    16   ar
    30    16     7   ar
    31    27    21   ar
    32    16    11   ar
    33    32    28   ar
    34     1     5    1
    35     4     6    1
@<TRIPOS>MOLECULE
*****
 32 35 0 0 0
SMALL
GASTEIGER

@<TRIPOS>ATOM
      1 N          61.0018   88.9379   12.2362 N.am    1  UNL1       -0.2658
      2 C          62.2898   89.6335   12.5635 C.2     1  UNL1        0.3083
      3 O          63.3507   89.7807   11.5132 O.2     1  UNL1       -0.2521
      4 N          62.5171   90.1818   13.9410 N.am    1  UNL1       -0.2667
      5 H          60.3055   88.8413   12.9256 H       1  UNL1        0.1565
      6 H          61.8208   90.0852   14.6303 H       1  UNL1        0.1565
      7 C          61.3769   87.0729   10.4668 C.ar    1  UNL1        0.1040
      8 C          60.7745   88.3895   10.8586 C.ar    1  UNL1        0.0871
      9 C          59.9450   89.1577    9.8730 C.ar    1  UNL1        0.1165
     10 N          59.7178   88.6093    8.4954 N.ar    1  UNL1       -0.2236
     11 C          60.3202   87.2927    8.1035 C.ar    1  UNL1        0.1660
     12 C          60.2699   86.5060    6.8274 C.ar    1  UNL1        0.0713
     13 C          61.0683   85.2516    7.0244 C.ar    1  UNL1        0.1613
     14 CL         61.2850   84.1748    6.0029 Cl      1  UNL1       -0.0594
     15 N          61.6121   85.2629    8.4223 N.ar    1  UNL1       -0.1523
     16 N          61.1498   86.5244    9.0893 N.ar    1  UNL1       -0.2118
     17 C          62.2065   86.3046   11.4525 C.3     1  UNL1        0.1564
     18 C          62.1870   84.8048   11.4414 C.3     1  UNL1        0.0387
     19 C          63.7210   86.2839   13.5634 C.3     1  UNL1        0.1745
     20 O          63.0556   87.0363   12.4495 O.3     1  UNL1       -0.3476
     21 C          63.8052   90.8775   14.2683 C.ar    1  UNL1        0.0719
     22 C          64.1406   91.2030   15.6935 C.ar    1  UNL1        0.1153
     23 N          65.4287   91.8986   16.0208 N.ar    1  UNL1       -0.2216
     24 C          66.3813   92.2686   14.9228 C.ar    1  UNL1        0.1944
     25 C          66.0458   91.9430   13.4974 C.ar    1  UNL1        0.0964
     26 CL         66.9984   92.3130   12.3994 Cl      1  UNL1       -0.0789
     27 C          64.7577   91.2474   13.1702 C.ar    1  UNL1        0.0308
     28 N          67.6693   92.9642   15.2500 N.ar    1  UNL1       -0.1288
     29 N          69.0359   92.5515   14.7894 N.ar    1  UNL1       -0.1432
     30 C          70.0282   93.5268   15.3501 C.ar    1  UNL1        0.1447
     31 C          69.2748   94.5422   16.1572 C.ar    1  UNL1        0.1447
     32 N          67.8169   94.1944   16.0954 N.ar    1  UNL1       -0.1432
@<TRIPOS>BOND
     1    19    20    1
     2    20    17    1
     3    17    18    1
     4    17     7    1
     5     7     8   ar
     6     8     1    1
     7     1     2   am
     8     2     3    2
     9     2     4   am
    10     4    21    1
    11    21    22   ar
    12    22    23   ar
    13    23    24   ar
    14    24    28    1
    15    28    29   ar
    16    29    30   ar
    17    30    31   ar
    18    31    32   ar
    19    24    25   ar
    20    25    26    1
    21    25    27   ar
    22     8     9   ar
    23     9    10   ar
    24    10    11   ar
    25    11    12   ar
    26    12    13   ar
    27    13    14    1
    28    13    15   ar
    29    15    16   ar
    30    16     7   ar
    31    27    21   ar
    32    16    11   ar
    33    32    28   ar
    34     1     5    1
    35     4     6    1
@<TRIPOS>MOLECULE
*****
 32 35 0 0 0
SMALL
GASTEIGER

@<TRIPOS>ATOM
      1 N          60.8137   94.4959    0.5979 N.am    1  UNL1       -0.2658
      2 C          60.7605   93.4185    1.6402 C.2     1  UNL1        0.3083
      3 O          61.7126   92.2614    1.5724 O.2     1  UNL1       -0.2521
      4 N          59.7551   93.4983    2.7506 N.am    1  UNL1       -0.2667
      5 H          60.1888   95.2553    0.6425 H       1  UNL1        0.1565
      6 H          59.1302   94.2577    2.7952 H       1  UNL1        0.1565
      7 C          61.3889   93.9894   -1.8846 C.ar    1  UNL1        0.1040
      8 C          61.8192   94.4161   -0.5124 C.ar    1  UNL1        0.0871
      9 C          63.2548   94.7629   -0.2506 C.ar    1  UNL1        0.1165
     10 N          64.2603   94.6831   -1.3609 N.ar    1  UNL1       -0.2236
     11 C          63.8300   94.2564   -2.7331 C.ar    1  UNL1        0.1660
     12 C          64.5894   94.0855   -4.0152 C.ar    1  UNL1        0.0713
     13 C          63.6231   93.6330   -5.0695 C.ar    1  UNL1        0.1613
     14 CL         63.9551   93.3406   -6.5028 Cl      1  UNL1       -0.0594
     15 N          62.2664   93.5243   -4.4389 N.ar    1  UNL1       -0.1523
     16 N          62.3943   93.9096   -2.9949 N.ar    1  UNL1       -0.2118
     17 C          59.9532   93.6426   -2.1464 C.3     1  UNL1        0.1564
     18 C          59.1801   94.3891   -3.1928 C.3     1  UNL1        0.0387
     19 C          57.9015   92.7433   -0.8304 C.3     1  UNL1        0.1745
     20 O          59.2907   92.5492   -1.3617 O.3     1  UNL1       -0.3476
     21 C          59.7018   92.4209    3.7930 C.ar    1  UNL1        0.0719
     22 C          60.9730   91.8319    4.3285 C.ar    1  UNL1        0.1153
     23 N          60.9198   90.7546    5.3708 N.ar    1  UNL1       -0.2216
     24 C          59.5951   90.2662    5.8776 C.ar    1  UNL1        0.1944
     25 C          58.3238   90.8552    5.3421 C.ar    1  UNL1        0.0964
     26 CL         56.9992   90.3669    5.8489 Cl      1  UNL1       -0.0789
     27 C          58.3771   91.9326    4.2997 C.ar    1  UNL1        0.0308
     28 N          59.5419   89.1889    6.9200 N.ar    1  UNL1       -0.1288
     29 N          59.9813   89.3213    8.3480 N.ar    1  UNL1       -0.1432
     30 C          59.7509   88.0043    9.0280 C.ar    1  UNL1        0.1447
     31 C          59.1690   87.0579    8.0201 C.ar    1  UNL1        0.1447
     32 N          59.0398   87.7901    6.7173 N.ar    1  UNL1       -0.1432
@<TRIPOS>BOND
     1    19    20    1
     2    20    17    1
     3    17    18    1
     4    17     7    1
     5     7     8   ar
     6     8     1    1
     7     1     2   am
     8     2     3    2
     9     2     4   am
    10     4    21    1
    11    21    22   ar
    12    22    23   ar
    13    23    24   ar
    14    24    28    1
    15    28    29   ar
    16    29    30   ar
    17    30    31   ar
    18    31    32   ar
    19    24    25   ar
    20    25    26    1
    21    25    27   ar
    22     8     9   ar
    23     9    10   ar
    24    10    11   ar
    25    11    12   ar
    26    12    13   ar
    27    13    14    1
    28    13    15   ar
    29    15    16   ar
    30    16     7   ar
    31    27    21   ar
    32    16    11   ar
    33    32    28   ar
    34     1     5    1
    35     4     6    1
@<TRIPOS>MOLECULE
*****
 32 35 0 0 0
SMALL
GASTEIGER

@<TRIPOS>ATOM
      1 N          60.3553   94.5317    0.6173 N.am    1  UNL1       -0.2658
      2 C          60.2998   93.3968    1.5964 C.2     1  UNL1        0.3083
      3 O          60.8113   92.0422    1.2045 O.2     1  UNL1       -0.2521
      4 N          59.7326   93.6163    2.9676 N.am    1  UNL1       -0.2667
      5 H          60.0196   95.4207    0.8746 H       1  UNL1        0.1565
      6 H          59.3968   94.5053    3.2249 H       1  UNL1        0.1565
      7 C          62.3560   94.6523   -1.0359 C.ar    1  UNL1        0.1040
      8 C          60.9225   94.3122   -0.7539 C.ar    1  UNL1        0.0871
      9 C          60.0563   93.7525   -1.8431 C.ar    1  UNL1        0.1165
     10 N          60.6235   93.5329   -3.2143 N.ar    1  UNL1       -0.2236
     11 C          62.0570   93.8731   -3.4962 C.ar    1  UNL1        0.1660
     12 C          62.8878   93.7663   -4.7405 C.ar    1  UNL1        0.0713
     13 C          64.2675   94.2600   -4.4203 C.ar    1  UNL1        0.1613
     14 CL         65.4226   94.3296   -5.3747 Cl      1  UNL1       -0.0594
     15 N          64.2894   94.6719   -2.9781 N.ar    1  UNL1       -0.1523
     16 N          62.9232   94.4327   -2.4070 N.ar    1  UNL1       -0.2118
     17 C          63.2222   95.2120    0.0534 C.3     1  UNL1        0.1564
     18 C          63.7325   96.6192   -0.0427 C.3     1  UNL1        0.0387
     19 C          64.4748   93.1742    1.0675 C.3     1  UNL1        0.1745
     20 O          63.5781   94.3643    1.2387 O.3     1  UNL1       -0.3476
     21 C          59.6770   92.4812    3.9468 C.ar    1  UNL1        0.0719
     22 C          60.9469   91.8560    4.4430 C.ar    1  UNL1        0.1153
     23 N          60.8913   90.7210    5.4222 N.ar    1  UNL1       -0.2216
     24 C          59.5658   90.2113    5.9051 C.ar    1  UNL1        0.1944
     25 C          58.2958   90.8366    5.4089 C.ar    1  UNL1        0.0964
     26 CL         56.9703   90.3270    5.8918 Cl      1  UNL1       -0.0789
     27 C          58.3514   91.9717    4.4297 C.ar    1  UNL1        0.0308
     28 N          59.5102   89.0764    6.8843 N.ar    1  UNL1       -0.1288
     29 N          59.9351   89.1306    8.3218 N.ar    1  UNL1       -0.1432
     30 C          59.7075   87.7756    8.9239 C.ar    1  UNL1        0.1447
     31 C          59.1420   86.8841    7.8583 C.ar    1  UNL1        0.1447
     32 N          59.0201   87.6880    6.5978 N.ar    1  UNL1       -0.1432
@<TRIPOS>BOND
     1    19    20    1
     2    20    17    1
     3    17    18    1
     4    17     7    1
     5     7     8   ar
     6     8     1    1
     7     1     2   am
     8     2     3    2
     9     2     4   am
    10     4    21    1
    11    21    22   ar
    12    22    23   ar
    13    23    24   ar
    14    24    28    1
    15    28    29   ar
    16    29    30   ar
    17    30    31   ar
    18    31    32   ar
    19    24    25   ar
    20    25    26    1
    21    25    27   ar
    22     8     9   ar
    23     9    10   ar
    24    10    11   ar
    25    11    12   ar
    26    12    13   ar
    27    13    14    1
    28    13    15   ar
    29    15    16   ar
    30    16     7   ar
    31    27    21   ar
    32    16    11   ar
    33    32    28   ar
    34     1     5    1
    35     4     6    1
