@<TRIPOS>MOLECULE
*****
 53 57 0 0 0
SMALL
GASTEIGER

@<TRIPOS>ATOM
      1 C          63.9729   92.0243   11.1806 C.3     1  UNL1        0.0760
      2 C          61.9141   90.5442   10.6145 C.2     1  UNL1        0.2420
      3 O          61.1124   91.2588   11.6616 O.2     1  UNL1       -0.2733
      4 N          63.3444   90.9270   10.3740 N.am    1  UNL1       -0.3043
      5 H          63.8706   90.4579    9.6867 H       1  UNL1        0.1494
      6 N          62.6522   86.2420   11.7083 N.am    1  UNL1       -0.2566
      7 C          63.5267   85.9053   12.8795 C.3     1  UNL1        0.1168
      8 C          62.4062   87.6761   11.3437 C.2     1  UNL1        0.3079
      9 O          63.0346   88.7735   12.1503 O.2     1  UNL1       -0.2523
     10 N          61.5316   88.0127   10.1724 N.am    1  UNL1       -0.2546
     11 C          60.9031   86.9154    9.3657 C.3     1  UNL1        0.1127
     12 C          60.0286   87.2520    8.1945 C.3     1  UNL1        0.0940
     13 N          59.7826   88.6861    7.8299 N.3     1  UNL1       -0.2682
     14 C          58.9080   89.0228    6.6586 C.3     1  UNL1        0.0897
     15 C          60.4110   89.7835    8.6366 C.3     1  UNL1        0.1017
     16 C          61.2856   89.4468    9.8078 C.3     1  UNL1        0.1691
     17 C          62.0237   85.1446   10.9015 C.3     1  UNL1        0.1413
     18 C          63.0050   81.4018   11.2080 C.ar    1  UNL1        0.0875
     19 N          62.0457   82.5289   11.4517 N.ar    1  UNL1       -0.2453
     20 C          62.6449   83.7795   10.8800 C.ar    1  UNL1        0.0858
     21 C          63.9746   83.4253   10.2828 C.ar    1  UNL1        0.0530
     22 S          64.1971   81.9558   10.4855 S.2     1  UNL1       -0.0705
     23 C          62.8150   78.8886   10.5776 C.3     1  UNL1        0.0069
     24 C          62.8069   79.9718   11.6151 C.3     1  UNL1        0.0465
     25 C          62.6008   79.6250   13.0598 C.3     1  UNL1        0.0069
     26 C          63.8982   91.9913   12.6784 C.3     1  UNL1        0.0216
     27 C          64.1944   90.7193   13.4163 C.3     1  UNL1        0.0217
     28 C          64.0874   90.6775   14.9119 C.3     1  UNL1        0.0792
     29 N          63.2390   89.6326   15.5742 N.am    1  UNL1       -0.2720
     30 C          63.6940   88.2036   15.6014 C.2     1  UNL1        0.4019
     31 O          64.9975   87.8193   14.9662 O.2     1  UNL1       -0.2264
     32 H          62.3835   89.8848   15.9910 H       1  UNL1        0.1527
     33 O          62.8456   87.1587   16.2637 O.3     1  UNL1       -0.4291
     34 C          63.4676   85.8806   16.7426 C.3     1  UNL1        0.2447
     35 C          63.3428   84.6319   15.9210 C.ar    1  UNL1        0.0714
     36 C          64.4776   83.8442   15.3361 C.ar    1  UNL1        0.1053
     37 N          63.8975   82.6771   14.5936 N.ar    1  UNL1       -0.2350
     38 C          62.4042   82.7434   14.7195 C.ar    1  UNL1        0.1343
     39 S          62.0614   83.9516   15.5399 S.2     1  UNL1       -0.0652
     40 C          64.8288   91.6804   15.7451 C.3     1  UNL1        0.0460
     41 C          66.2533   92.0194   15.4198 C.ar    1  UNL1       -0.0205
     42 C          66.9674   93.0842   16.1984 C.ar    1  UNL1       -0.0042
     43 C          68.3920   93.4232   15.8730 C.ar    1  UNL1       -0.0003
     44 C          69.1023   92.6974   14.7692 C.ar    1  UNL1       -0.0000
     45 C          68.3882   91.6326   13.9906 C.ar    1  UNL1       -0.0003
     46 C          66.9636   91.2936   14.3160 C.ar    1  UNL1       -0.0042
     47 C          64.6762   93.1547   10.4895 C.3     1  UNL1        0.0459
     48 C          66.1386   93.0471   10.1737 C.ar    1  UNL1       -0.0205
     49 C          66.8127   94.1178    9.3680 C.ar    1  UNL1       -0.0042
     50 C          68.2751   94.0101    9.0522 C.ar    1  UNL1       -0.0003
     51 C          69.0634   92.8317    9.5421 C.ar    1  UNL1       -0.0000
     52 C          68.3893   91.7610   10.3477 C.ar    1  UNL1       -0.0003
     53 C          66.9268   91.8687   10.6636 C.ar    1  UNL1       -0.0042
@<TRIPOS>BOND
     1    23    24    1
     2    24    25    1
     3    24    18    1
     4    18    19   ar
     5    19    20   ar
     6    20    17    1
     7    17     6    1
     8     6     7    1
     9     6     8   am
    10     8     9    2
    11     8    10   am
    12    10    11    1
    13    11    12    1
    14    12    13    1
    15    13    14    1
    16    13    15    1
    17    15    16    1
    18    16     2    1
    19     2     3    2
    20     2     4   am
    21     4     1    1
    22     1    26    1
    23    26    27    1
    24    28    27    1
    25    28    40    1
    26    40    41    1
    27    41    42   ar
    28    42    43   ar
    29    43    44   ar
    30    44    45   ar
    31    45    46   ar
    32    28    29    1
    33    29    30   am
    34    30    31    2
    35    30    33    1
    36    33    34    1
    37    34    35    1
    38    35    36   ar
    39    36    37   ar
    40    37    38   ar
    41    38    39   ar
    42     1    47    1
    43    47    48    1
    44    48    49   ar
    45    49    50   ar
    46    50    51   ar
    47    51    52   ar
    48    52    53   ar
    49    20    21   ar
    50    21    22   ar
    51    22    18   ar
    52    16    10    1
    53    46    41   ar
    54    39    35   ar
    55    53    48   ar
    56     4     5    1
    57    29    32    1
@<TRIPOS>MOLECULE
*****
 53 57 0 0 0
SMALL
GASTEIGER

@<TRIPOS>ATOM
      1 C          64.1198   91.6086   11.3126 C.3     1  UNL1        0.0760
      2 C          61.9936   90.2385   10.7193 C.2     1  UNL1        0.2420
      3 O          61.2087   91.0177   11.7326 O.2     1  UNL1       -0.2733
      4 N          63.4491   90.5340   10.5093 N.am    1  UNL1       -0.3043
      5 H          63.9643   90.0226    9.8442 H       1  UNL1        0.1494
      6 N          62.6510   85.9101   11.7598 N.am    1  UNL1       -0.2566
      7 C          63.5407   85.5420   12.9099 C.3     1  UNL1        0.1168
      8 C          62.4318   87.3529   11.4130 C.2     1  UNL1        0.3079
      9 O          63.1025   88.4276   12.2162 O.2     1  UNL1       -0.2523
     10 N          61.5421   87.7210   10.2628 N.am    1  UNL1       -0.2546
     11 C          60.8715   86.6464    9.4595 C.3     1  UNL1        0.1127
     12 C          59.9817   87.0145    8.3094 C.3     1  UNL1        0.0940
     13 N          59.7626   88.4573    7.9625 N.3     1  UNL1       -0.2682
     14 C          58.8728   88.8255    6.8124 C.3     1  UNL1        0.0897
     15 C          60.4332   89.5320    8.7658 C.3     1  UNL1        0.1017
     16 C          61.3229   89.1639    9.9160 C.3     1  UNL1        0.1691
     17 C          61.9803   84.8354   10.9564 C.3     1  UNL1        0.1413
     18 C          62.8393   81.0937   11.5283 C.ar    1  UNL1        0.0875
     19 N          62.0113   82.3083   11.8269 N.ar    1  UNL1       -0.2453
     20 C          62.5195   83.4359   10.9781 C.ar    1  UNL1        0.0858
     21 C          63.6616   82.9181   10.1549 C.ar    1  UNL1        0.0530
     22 S          63.8592   81.4705   10.4950 S.2     1  UNL1       -0.0705
     23 C          62.6949   78.5102   11.2944 C.3     1  UNL1        0.0069
     24 C          62.6761   79.7399   12.1532 C.3     1  UNL1        0.0465
     25 C          62.4940   79.6158   13.6369 C.3     1  UNL1        0.0069
     26 C          64.5740   91.3247   12.7137 C.3     1  UNL1        0.0216
     27 C          63.5707   90.9632   13.7686 C.3     1  UNL1        0.0217
     28 C          64.0200   90.7195   15.1788 C.3     1  UNL1        0.0792
     29 N          65.3607   91.2141   15.6349 N.am    1  UNL1       -0.2720
     30 C          65.4523   92.4113   16.5340 C.2     1  UNL1        0.4019
     31 O          64.2033   93.1139   16.9770 O.2     1  UNL1       -0.2264
     32 H          66.1805   90.7530   15.3442 H       1  UNL1        0.1527
     33 O          66.7930   92.9059   16.9901 O.3     1  UNL1       -0.4291
     34 C          67.6822   93.6486   16.0374 C.3     1  UNL1        0.2447
     35 C          68.3642   92.9147   14.9211 C.ar    1  UNL1        0.0714
     36 C          69.8438   92.7214   14.7673 C.ar    1  UNL1        0.1053
     37 N          70.0804   91.9324   13.5137 N.ar    1  UNL1       -0.2350
     38 C          68.7471   91.6381   12.8926 C.ar    1  UNL1        0.1343
     39 S          67.6864   92.2452   13.7624 S.2     1  UNL1       -0.0652
     40 C          63.1287   89.9812   16.1330 C.3     1  UNL1        0.0460
     41 C          63.2980   88.5034   16.3267 C.ar    1  UNL1       -0.0205
     42 C          62.6282   87.8166   17.4798 C.ar    1  UNL1       -0.0042
     43 C          62.7975   86.3388   17.6735 C.ar    1  UNL1       -0.0003
     44 C          63.6366   85.5479   16.7142 C.ar    1  UNL1       -0.0000
     45 C          64.3064   86.2347   15.5612 C.ar    1  UNL1       -0.0003
     46 C          64.1371   87.7125   15.3674 C.ar    1  UNL1       -0.0042
     47 C          64.3363   92.9673   10.7148 C.3     1  UNL1        0.0459
     48 C          65.6954   93.3591   10.2155 C.ar    1  UNL1       -0.0205
     49 C          66.7376   92.3076    9.9740 C.ar    1  UNL1       -0.0042
     50 C          68.0967   92.6993    9.4747 C.ar    1  UNL1       -0.0003
     51 C          68.4136   94.1427    9.2168 C.ar    1  UNL1       -0.0000
     52 C          67.3715   95.1941    9.4582 C.ar    1  UNL1       -0.0003
     53 C          66.0123   94.8023    9.9576 C.ar    1  UNL1       -0.0042
@<TRIPOS>BOND
     1    23    24    1
     2    24    25    1
     3    24    18    1
     4    18    19   ar
     5    19    20   ar
     6    20    17    1
     7    17     6    1
     8     6     7    1
     9     6     8   am
    10     8     9    2
    11     8    10   am
    12    10    11    1
    13    11    12    1
    14    12    13    1
    15    13    14    1
    16    13    15    1
    17    15    16    1
    18    16     2    1
    19     2     3    2
    20     2     4   am
    21     4     1    1
    22     1    26    1
    23    26    27    1
    24    28    27    1
    25    28    40    1
    26    40    41    1
    27    41    42   ar
    28    42    43   ar
    29    43    44   ar
    30    44    45   ar
    31    45    46   ar
    32    28    29    1
    33    29    30   am
    34    30    31    2
    35    30    33    1
    36    33    34    1
    37    34    35    1
    38    35    36   ar
    39    36    37   ar
    40    37    38   ar
    41    38    39   ar
    42     1    47    1
    43    47    48    1
    44    48    49   ar
    45    49    50   ar
    46    50    51   ar
    47    51    52   ar
    48    52    53   ar
    49    20    21   ar
    50    21    22   ar
    51    22    18   ar
    52    16    10    1
    53    46    41   ar
    54    39    35   ar
    55    53    48   ar
    56     4     5    1
    57    29    32    1
@<TRIPOS>MOLECULE
*****
 53 57 0 0 0
SMALL
GASTEIGER

@<TRIPOS>ATOM
      1 C          62.7310   89.9868   12.3455 C.3     1  UNL1        0.0760
      2 C          63.6278   88.5999   14.3511 C.2     1  UNL1        0.2420
      3 O          64.9697   89.2535   14.2031 O.2     1  UNL1       -0.2733
      4 N          62.5084   88.9666   13.4223 N.am    1  UNL1       -0.3043
      5 H          61.6277   88.5376   13.5194 H       1  UNL1        0.1494
      6 N          63.7619   84.2132   13.3565 N.am    1  UNL1       -0.2566
      7 C          64.0293   83.7713   11.9483 C.3     1  UNL1        0.1168
      8 C          63.7172   85.6755   13.6880 C.2     1  UNL1        0.3079
      9 O          63.9398   86.6958   12.6113 O.2     1  UNL1       -0.2523
     10 N          63.4498   86.1174   15.0964 N.am    1  UNL1       -0.2546
     11 C          63.2272   85.0971   16.1731 C.3     1  UNL1        0.1127
     12 C          62.9599   85.5390   17.5813 C.3     1  UNL1        0.0940
     13 N          62.9151   87.0012   17.9128 N.3     1  UNL1       -0.2682
     14 C          62.6478   87.4431   19.3212 C.3     1  UNL1        0.0897
     15 C          63.1378   88.0215   16.8361 C.3     1  UNL1        0.1017
     16 C          63.4051   87.5796   15.4279 C.3     1  UNL1        0.1691
     17 C          63.5393   83.1929   14.4333 C.3     1  UNL1        0.1413
     18 C          60.7138   80.5545   14.0856 C.ar    1  UNL1        0.0875
     19 N          61.1990   81.9046   14.5236 N.ar    1  UNL1       -0.2453
     20 C          62.6539   82.0102   14.1743 C.ar    1  UNL1        0.0858
     21 C          63.0680   80.7252   13.5204 C.ar    1  UNL1        0.0530
     22 S          61.8689   79.8256   13.4656 S.2     1  UNL1       -0.0705
     23 C          59.0953   78.5707   14.5270 C.3     1  UNL1        0.0069
     24 C          59.3186   80.0260   14.2405 C.3     1  UNL1        0.0465
     25 C          58.1467   80.9529   14.1088 C.3     1  UNL1        0.0069
     26 C          62.4663   89.6341   10.9118 C.3     1  UNL1        0.0216
     27 C          61.1459   89.9753   10.2870 C.3     1  UNL1        0.0217
     28 C          60.5752   89.0974    9.2130 C.3     1  UNL1        0.0792
     29 N          60.2330   89.6779    7.8728 N.am    1  UNL1       -0.2720
     30 C          59.0680   89.1384    7.0971 C.2     1  UNL1        0.4019
     31 O          58.2452   88.0184    7.6616 O.2     1  UNL1       -0.2264
     32 H          60.7730   90.4130    7.5024 H       1  UNL1        0.1527
     33 O          58.7258   89.7190    5.7570 O.3     1  UNL1       -0.4291
     34 C          58.8692   91.1930    5.5194 C.3     1  UNL1        0.2447
     35 C          59.8847   91.6992    4.5384 C.ar    1  UNL1        0.0714
     36 C          61.3268   91.2915    4.4726 C.ar    1  UNL1        0.1053
     37 N          61.9699   92.0423    3.3444 N.ar    1  UNL1       -0.2350
     38 C          60.9252   92.9141    2.7129 C.ar    1  UNL1        0.1343
     39 S          59.6365   92.7020    3.4508 S.2     1  UNL1       -0.0652
     40 C          60.3467   87.6390    9.4791 C.3     1  UNL1        0.0460
     41 C          61.1550   86.6078    8.7488 C.ar    1  UNL1       -0.0205
     42 C          60.5794   85.9153    7.5491 C.ar    1  UNL1       -0.0042
     43 C          61.3876   84.8840    6.8189 C.ar    1  UNL1       -0.0003
     44 C          62.7714   84.5453    7.2882 C.ar    1  UNL1       -0.0000
     45 C          63.3470   85.2378    8.4878 C.ar    1  UNL1       -0.0003
     46 C          62.5387   86.2690    9.2181 C.ar    1  UNL1       -0.0042
     47 C          63.2184   91.3599   12.7024 C.3     1  UNL1        0.0459
     48 C          64.5697   91.8195   12.2412 C.ar    1  UNL1       -0.0205
     49 C          64.7783   92.2180   10.8103 C.ar    1  UNL1       -0.0042
     50 C          66.1296   92.6776   10.3491 C.ar    1  UNL1       -0.0003
     51 C          67.2723   92.7387   11.3189 C.ar    1  UNL1       -0.0000
     52 C          67.0637   92.3402   12.7499 C.ar    1  UNL1       -0.0003
     53 C          65.7123   91.8806   13.2110 C.ar    1  UNL1       -0.0042
@<TRIPOS>BOND
     1    23    24    1
     2    24    25    1
     3    24    18    1
     4    18    19   ar
     5    19    20   ar
     6    20    17    1
     7    17     6    1
     8     6     7    1
     9     6     8   am
    10     8     9    2
    11     8    10   am
    12    10    11    1
    13    11    12    1
    14    12    13    1
    15    13    14    1
    16    13    15    1
    17    15    16    1
    18    16     2    1
    19     2     3    2
    20     2     4   am
    21     4     1    1
    22     1    26    1
    23    26    27    1
    24    28    27    1
    25    28    40    1
    26    40    41    1
    27    41    42   ar
    28    42    43   ar
    29    43    44   ar
    30    44    45   ar
    31    45    46   ar
    32    28    29    1
    33    29    30   am
    34    30    31    2
    35    30    33    1
    36    33    34    1
    37    34    35    1
    38    35    36   ar
    39    36    37   ar
    40    37    38   ar
    41    38    39   ar
    42     1    47    1
    43    47    48    1
    44    48    49   ar
    45    49    50   ar
    46    50    51   ar
    47    51    52   ar
    48    52    53   ar
    49    20    21   ar
    50    21    22   ar
    51    22    18   ar
    52    16    10    1
    53    46    41   ar
    54    39    35   ar
    55    53    48   ar
    56     4     5    1
    57    29    32    1
@<TRIPOS>MOLECULE
*****
 53 57 0 0 0
SMALL
GASTEIGER

@<TRIPOS>ATOM
      1 C          64.2799   90.4237   12.8473 C.3     1  UNL1        0.0760
      2 C          63.0686   88.9046   14.5722 C.2     1  UNL1        0.2420
      3 O          61.7696   89.5872   14.2612 O.2     1  UNL1       -0.2733
      4 N          64.3237   89.3229   13.8653 N.am    1  UNL1       -0.3043
      5 H          65.1763   88.8749   14.0694 H       1  UNL1        0.1494
      6 N          63.6702   84.6442   13.2543 N.am    1  UNL1       -0.2566
      7 C          63.8268   84.3249   11.7971 C.3     1  UNL1        0.1168
      8 C          63.4696   86.0644   13.6936 C.2     1  UNL1        0.3079
      9 O          63.4257   87.1652   12.6757 O.2     1  UNL1       -0.2523
     10 N          63.3130   86.3836   15.1509 N.am    1  UNL1       -0.2546
     11 C          63.3569   85.2828   16.1687 C.3     1  UNL1        0.1127
     12 C          63.2002   85.6021   17.6259 C.3     1  UNL1        0.0940
     13 N          62.9997   87.0222   18.0652 N.3     1  UNL1       -0.2682
     14 C          62.8431   87.3415   19.5225 C.3     1  UNL1        0.0897
     15 C          62.9558   88.1230   17.0474 C.3     1  UNL1        0.1017
     16 C          63.1125   87.8038   15.5902 C.3     1  UNL1        0.1691
     17 C          63.7140   83.5433   14.2722 C.3     1  UNL1        0.1413
     18 C          60.9954   80.7825   14.0423 C.ar    1  UNL1        0.0875
     19 N          61.4166   82.1814   14.3825 N.ar    1  UNL1       -0.2453
     20 C          62.8802   82.3112   14.0808 C.ar    1  UNL1        0.0858
     21 C          63.3637   80.9925   13.5542 C.ar    1  UNL1        0.0530
     22 S          62.1988   80.0477   13.5304 S.2     1  UNL1       -0.0705
     23 C          59.4278   78.7687   14.5290 C.3     1  UNL1        0.0069
     24 C          59.6136   80.2176   14.1883 C.3     1  UNL1        0.0465
     25 C          58.4176   81.1017   13.9936 C.3     1  UNL1        0.0069
     26 C          63.1093   90.5382   11.9164 C.3     1  UNL1        0.0216
     27 C          63.2820   90.2474   10.4550 C.3     1  UNL1        0.0217
     28 C          62.3614   89.2823    9.7685 C.3     1  UNL1        0.0792
     29 N          61.3966   89.7750    8.7310 N.am    1  UNL1       -0.2720
     30 C          59.9219   89.7449    9.0037 C.2     1  UNL1        0.4019
     31 O          59.4120   89.2221   10.3139 O.2     1  UNL1       -0.2264
     32 H          61.7312   90.1181    7.8710 H       1  UNL1        0.1527
     33 O          58.9571   90.2376    7.9661 O.3     1  UNL1       -0.4291
     34 C          59.1009   89.7980    6.5393 C.3     1  UNL1        0.2447
     35 C          59.2764   90.8186    5.4542 C.ar    1  UNL1        0.0714
     36 C          58.1831   91.6217    4.8139 C.ar    1  UNL1        0.1053
     37 N          58.8069   92.5148    3.7828 N.ar    1  UNL1       -0.2350
     38 C          60.2858   92.2638    3.7858 C.ar    1  UNL1        0.1343
     39 S          60.5760   91.2155    4.8188 S.2     1  UNL1       -0.0652
     40 C          62.4057   87.8247   10.1195 C.3     1  UNL1        0.0460
     41 C          62.0941   86.7923    9.0768 C.ar    1  UNL1       -0.0205
     42 C          63.1754   85.8806    8.5774 C.ar    1  UNL1       -0.0042
     43 C          62.8637   84.8483    7.5347 C.ar    1  UNL1       -0.0003
     44 C          61.4708   84.7277    6.9914 C.ar    1  UNL1       -0.0000
     45 C          60.3895   85.6394    7.4909 C.ar    1  UNL1       -0.0003
     46 C          60.7011   86.6717    8.5335 C.ar    1  UNL1       -0.0042
     47 C          65.4067   91.4101   12.7603 C.3     1  UNL1        0.0459
     48 C          66.1823   91.7732   13.9917 C.ar    1  UNL1       -0.0205
     49 C          65.4584   92.1544   15.2489 C.ar    1  UNL1       -0.0042
     50 C          66.2340   92.5176   16.4803 C.ar    1  UNL1       -0.0003
     51 C          67.7337   92.4996   16.4545 C.ar    1  UNL1       -0.0000
     52 C          68.4577   92.1184   15.1973 C.ar    1  UNL1       -0.0003
     53 C          67.6820   91.7552   13.9659 C.ar    1  UNL1       -0.0042
@<TRIPOS>BOND
     1    23    24    1
     2    24    25    1
     3    24    18    1
     4    18    19   ar
     5    19    20   ar
     6    20    17    1
     7    17     6    1
     8     6     7    1
     9     6     8   am
    10     8     9    2
    11     8    10   am
    12    10    11    1
    13    11    12    1
    14    12    13    1
    15    13    14    1
    16    13    15    1
    17    15    16    1
    18    16     2    1
    19     2     3    2
    20     2     4   am
    21     4     1    1
    22     1    26    1
    23    26    27    1
    24    28    27    1
    25    28    40    1
    26    40    41    1
    27    41    42   ar
    28    42    43   ar
    29    43    44   ar
    30    44    45   ar
    31    45    46   ar
    32    28    29    1
    33    29    30   am
    34    30    31    2
    35    30    33    1
    36    33    34    1
    37    34    35    1
    38    35    36   ar
    39    36    37   ar
    40    37    38   ar
    41    38    39   ar
    42     1    47    1
    43    47    48    1
    44    48    49   ar
    45    49    50   ar
    46    50    51   ar
    47    51    52   ar
    48    52    53   ar
    49    20    21   ar
    50    21    22   ar
    51    22    18   ar
    52    16    10    1
    53    46    41   ar
    54    39    35   ar
    55    53    48   ar
    56     4     5    1
    57    29    32    1
