@<TRIPOS>MOLECULE
*****
 30 33 0 0 0
SMALL
GASTEIGER

@<TRIPOS>ATOM
      1 C          65.3586   92.3157   13.2406 C.3     1  UNL1        0.0898
      2 N          65.7837   92.4482   13.9018 N.3     1  UNL1       -0.2701
      3 C          66.7986   93.5357   13.7087 C.3     1  UNL1        0.0627
      4 C          67.5428   93.7097   14.9994 C.3     1  UNL1        0.0181
      5 C          66.9878   92.7298   15.9902 C.3     1  UNL1        0.0219
      6 C          65.9006   91.9502   15.3118 C.3     1  UNL1        0.0805
      7 C          64.8745   91.3370   14.3897 C.ar    1  UNL1        0.0004
      8 C          64.8738   91.9350   13.0140 C.ar    1  UNL1        0.0073
      9 S          63.8166   91.2409   12.2074 S.2     1  UNL1       -0.0766
     10 C          63.1639   90.2139   13.0846 C.ar    1  UNL1        0.0857
     11 C          63.8177   90.2734   14.4333 C.ar    1  UNL1        0.0703
     12 C          65.8358   93.0343   12.6735 C.3     1  UNL1        0.0486
     13 N          62.0525   89.2897   12.6835 N.am    1  UNL1       -0.2629
     14 C          62.1545   88.5021   11.4110 C.2     1  UNL1        0.3085
     15 O          63.3678   88.6385   10.5397 O.2     1  UNL1       -0.2521
     16 N          61.0431   87.5780   11.0100 N.am    1  UNL1       -0.2680
     17 H          61.2562   89.2002   13.2554 H       1  UNL1        0.1569
     18 H          60.2468   87.4884   11.5819 H       1  UNL1        0.1564
     19 C          61.1451   86.7903    9.7375 C.ar    1  UNL1        0.0516
     20 C          59.9887   86.7547    8.7828 C.ar    1  UNL1        0.0156
     21 C          60.0906   85.9670    7.5104 C.ar    1  UNL1        0.0127
     22 C          61.3490   85.2149    7.1926 C.ar    1  UNL1        0.0578
     23 CL         61.4509   84.4272    5.9201 Cl      1  UNL1       -0.0822
     24 C          62.5053   85.2505    8.1473 C.ar    1  UNL1        0.0127
     25 C          62.4034   86.0382    9.4197 C.ar    1  UNL1        0.0156
     26 C          63.4750   89.4191   15.6177 C.2     1  UNL1        0.2442
     27 N          63.0973   90.0598   16.9203 N.am    1  UNL1       -0.3253
     28 O          63.5101   87.9242   15.4995 O.2     1  UNL1       -0.2703
     29 H          63.0743   91.0410   16.9979 H       1  UNL1        0.1453
     30 H          62.8724   89.4991   17.6977 H       1  UNL1        0.1453
@<TRIPOS>BOND
     1     1     2    1
     2     2     3    1
     3     3     4    1
     4     4     5    1
     5     6     5    1
     6     6     7    1
     7     7     8   ar
     8     8     9   ar
     9     9    10   ar
    10    10    13    1
    11    13    14   am
    12    14    15    2
    13    14    16   am
    14    16    19    1
    15    19    20   ar
    16    20    21   ar
    17    21    22   ar
    18    22    23    1
    19    22    24   ar
    20    24    25   ar
    21    10    11   ar
    22    11    26    1
    23    26    27   am
    24    26    28    2
    25     8    12    1
    26     6     2    1
    27    11     7   ar
    28    12     3    1
    29    25    19   ar
    30    13    17    1
    31    16    18    1
    32    27    29    1
    33    27    30    1
@<TRIPOS>MOLECULE
*****
 30 33 0 0 0
SMALL
GASTEIGER

@<TRIPOS>ATOM
      1 C          66.2554   92.2261   13.4327 C.3     1  UNL1        0.0898
      2 N          66.7029   92.2584   14.0915 N.3     1  UNL1       -0.2701
      3 C          67.9967   92.9802   13.8570 C.3     1  UNL1        0.0627
      4 C          68.7634   92.9882   15.1462 C.3     1  UNL1        0.0181
      5 C          67.9435   92.2713   16.1776 C.3     1  UNL1        0.0219
      6 C          66.6700   91.8202   15.5257 C.3     1  UNL1        0.0805
      7 C          65.5039   91.4971   14.6228 C.ar    1  UNL1        0.0004
      8 C          65.6778   91.9974   13.2194 C.ar    1  UNL1        0.0073
      9 S          64.4582   91.6123   12.4357 S.2     1  UNL1       -0.0766
     10 C          63.5306   90.8740   13.3547 C.ar    1  UNL1        0.0857
     11 C          64.1769   90.8029   14.7064 C.ar    1  UNL1        0.0703
     12 C          66.9242   92.7389   12.8365 C.3     1  UNL1        0.0486
     13 N          62.1917   90.3066   12.9865 N.am    1  UNL1       -0.2629
     14 C          62.0675   89.3761   11.8166 C.2     1  UNL1        0.3085
     15 O          63.2821   89.0131   11.0148 O.2     1  UNL1       -0.2521
     16 N          60.7287   88.8087   11.4485 N.am    1  UNL1       -0.2680
     17 H          61.3945   90.5448   13.5128 H       1  UNL1        0.1569
     18 H          59.9315   89.0470   11.9748 H       1  UNL1        0.1564
     19 C          60.6044   87.8782   10.2785 C.ar    1  UNL1        0.0516
     20 C          59.8145   88.2915    9.0722 C.ar    1  UNL1        0.0156
     21 C          59.6902   87.3610    7.9023 C.ar    1  UNL1        0.0127
     22 C          60.3558   86.0173    7.9387 C.ar    1  UNL1        0.0578
     23 CL         60.2316   85.0868    6.7687 Cl      1  UNL1       -0.0822
     24 C          61.1457   85.6040    9.1450 C.ar    1  UNL1        0.0127
     25 C          61.2700   86.5345   10.3149 C.ar    1  UNL1        0.0156
     26 C          63.5979   90.1518   15.9274 C.2     1  UNL1        0.2442
     27 N          63.3345   88.6751   15.9365 N.am    1  UNL1       -0.3253
     28 O          63.2822   90.9774   17.1393 O.2     1  UNL1       -0.2703
     29 H          63.5417   88.1333   15.1411 H       1  UNL1        0.1453
     30 H          62.9545   88.2478   16.7379 H       1  UNL1        0.1453
@<TRIPOS>BOND
     1     1     2    1
     2     2     3    1
     3     3     4    1
     4     4     5    1
     5     6     5    1
     6     6     7    1
     7     7     8   ar
     8     8     9   ar
     9     9    10   ar
    10    10    13    1
    11    13    14   am
    12    14    15    2
    13    14    16   am
    14    16    19    1
    15    19    20   ar
    16    20    21   ar
    17    21    22   ar
    18    22    23    1
    19    22    24   ar
    20    24    25   ar
    21    10    11   ar
    22    11    26    1
    23    26    27   am
    24    26    28    2
    25     8    12    1
    26     6     2    1
    27    11     7   ar
    28    12     3    1
    29    25    19   ar
    30    13    17    1
    31    16    18    1
    32    27    29    1
    33    27    30    1
@<TRIPOS>MOLECULE
*****
 30 33 0 0 0
SMALL
GASTEIGER

@<TRIPOS>ATOM
      1 C          65.3350   91.3027   14.2830 C.3     1  UNL1        0.0898
      2 N          65.5853   91.9975   13.9828 N.3     1  UNL1       -0.2701
      3 C          66.4802   92.7318   14.9367 C.3     1  UNL1        0.0627
      4 C          66.8961   94.0176   14.2858 C.3     1  UNL1        0.0181
      5 C          66.2582   94.0779   12.9295 C.3     1  UNL1        0.0219
      6 C          65.4481   92.8295   12.7423 C.3     1  UNL1        0.0805
      7 C          64.7308   91.5040   12.8314 C.ar    1  UNL1        0.0004
      8 C          64.9609   90.7856   14.1279 C.ar    1  UNL1        0.0073
      9 S          64.1979   89.4949   14.0844 S.2     1  UNL1       -0.0766
     10 C          63.4961   89.4157   12.7610 C.ar    1  UNL1        0.0857
     11 C          63.8255   90.6574   11.9867 C.ar    1  UNL1        0.0703
     12 C          65.8356   91.3994   15.1806 C.3     1  UNL1        0.0486
     13 N          62.6190   88.2920   12.2941 N.am    1  UNL1       -0.2629
     14 C          62.9184   86.8831   12.7127 C.2     1  UNL1        0.3085
     15 O          64.0950   86.5978   13.5983 O.2     1  UNL1       -0.2521
     16 N          62.0413   85.7595   12.2457 N.am    1  UNL1       -0.2680
     17 H          61.8467   88.4792   11.7128 H       1  UNL1        0.1569
     18 H          61.2691   85.9467   11.6645 H       1  UNL1        0.1564
     19 C          62.3407   84.3505   12.6643 C.ar    1  UNL1        0.0516
     20 C          62.2368   83.9590   14.1085 C.ar    1  UNL1        0.0156
     21 C          62.5362   82.5501   14.5271 C.ar    1  UNL1        0.0127
     22 C          62.9396   81.5326   13.5014 C.ar    1  UNL1        0.0578
     23 CL         63.2390   80.1236   13.9200 Cl      1  UNL1       -0.0822
     24 C          63.0435   81.9241   12.0571 C.ar    1  UNL1        0.0127
     25 C          62.7441   83.3330   11.6386 C.ar    1  UNL1        0.0156
     26 C          63.3356   90.9935   10.6093 C.2     1  UNL1        0.2442
     27 N          63.8678   92.2022    9.8982 N.am    1  UNL1       -0.3253
     28 O          62.3135   90.1208    9.9432 O.2     1  UNL1       -0.2703
     29 H          64.5387   92.7749   10.3354 H       1  UNL1        0.1453
     30 H          63.5463   92.4228    8.9942 H       1  UNL1        0.1453
@<TRIPOS>BOND
     1     1     2    1
     2     2     3    1
     3     3     4    1
     4     4     5    1
     5     6     5    1
     6     6     7    1
     7     7     8   ar
     8     8     9   ar
     9     9    10   ar
    10    10    13    1
    11    13    14   am
    12    14    15    2
    13    14    16   am
    14    16    19    1
    15    19    20   ar
    16    20    21   ar
    17    21    22   ar
    18    22    23    1
    19    22    24   ar
    20    24    25   ar
    21    10    11   ar
    22    11    26    1
    23    26    27   am
    24    26    28    2
    25     8    12    1
    26     6     2    1
    27    11     7   ar
    28    12     3    1
    29    25    19   ar
    30    13    17    1
    31    16    18    1
    32    27    29    1
    33    27    30    1
@<TRIPOS>MOLECULE
*****
 30 33 0 0 0
SMALL
GASTEIGER

@<TRIPOS>ATOM
      1 C          61.6034   87.1755    9.7122 C.3     1  UNL1        0.0898
      2 N          60.9562   87.0597    9.2616 N.3     1  UNL1       -0.2701
      3 C          61.2195   86.1051    8.1349 C.3     1  UNL1        0.0627
      4 C          59.9505   85.9534    7.3497 C.3     1  UNL1        0.0181
      5 C          58.9028   86.8141    7.9912 C.3     1  UNL1        0.0219
      6 C          59.5244   87.4979    9.1727 C.3     1  UNL1        0.0805
      7 C          60.3989   88.0354   10.2799 C.ar    1  UNL1        0.0004
      8 C          61.8032   87.5095   10.2413 C.ar    1  UNL1        0.0073
      9 S          62.5576   88.1181   11.3861 S.2     1  UNL1       -0.0766
     10 C          61.6195   89.0201   12.1321 C.ar    1  UNL1        0.0857
     11 C          60.2854   88.9690   11.4484 C.ar    1  UNL1        0.0703
     12 C          62.2135   86.5444    9.1689 C.3     1  UNL1        0.0486
     13 N          61.9565   89.8310   13.3483 N.am    1  UNL1       -0.2629
     14 C          63.3398   90.3848   13.5208 C.2     1  UNL1        0.3085
     15 O          64.3861   90.1278   12.4772 O.2     1  UNL1       -0.2521
     16 N          63.6767   91.1956   14.7370 N.am    1  UNL1       -0.2680
     17 H          61.2698   89.9996   14.0333 H       1  UNL1        0.1569
     18 H          62.9900   91.3642   15.4219 H       1  UNL1        0.1564
     19 C          65.0601   91.7494   14.9095 C.ar    1  UNL1        0.0516
     20 C          66.0065   91.7793   13.7462 C.ar    1  UNL1        0.0156
     21 C          67.3898   92.3331   13.9188 C.ar    1  UNL1        0.0127
     22 C          67.8265   92.8571   15.2547 C.ar    1  UNL1        0.0578
     23 CL         69.2099   93.4110   15.4273 Cl      1  UNL1       -0.0822
     24 C          66.8801   92.8273   16.4180 C.ar    1  UNL1        0.0127
     25 C          65.4968   92.2734   16.2454 C.ar    1  UNL1        0.0156
     26 C          59.0540   89.7196   11.8608 C.2     1  UNL1        0.2442
     27 N          57.9995   89.0377   12.6813 N.am    1  UNL1       -0.3253
     28 O          58.8770   91.1521   11.4528 O.2     1  UNL1       -0.2703
     29 H          58.1157   88.0975   12.9491 H       1  UNL1        0.1453
     30 H          57.1913   89.5304   12.9520 H       1  UNL1        0.1453
@<TRIPOS>BOND
     1     1     2    1
     2     2     3    1
     3     3     4    1
     4     4     5    1
     5     6     5    1
     6     6     7    1
     7     7     8   ar
     8     8     9   ar
     9     9    10   ar
    10    10    13    1
    11    13    14   am
    12    14    15    2
    13    14    16   am
    14    16    19    1
    15    19    20   ar
    16    20    21   ar
    17    21    22   ar
    18    22    23    1
    19    22    24   ar
    20    24    25   ar
    21    10    11   ar
    22    11    26    1
    23    26    27   am
    24    26    28    2
    25     8    12    1
    26     6     2    1
    27    11     7   ar
    28    12     3    1
    29    25    19   ar
    30    13    17    1
    31    16    18    1
    32    27    29    1
    33    27    30    1
@<TRIPOS>MOLECULE
*****
 30 33 0 0 0
SMALL
GASTEIGER

@<TRIPOS>ATOM
      1 C          62.7390   83.2501   13.6340 C.3     1  UNL1        0.0898
      2 N          62.7265   82.5947   13.1806 N.3     1  UNL1       -0.2701
      3 C          62.7233   81.3414   14.0048 C.3     1  UNL1        0.0627
      4 C          62.6995   80.1703   13.0677 C.3     1  UNL1        0.0181
      5 C          62.6880   80.6999   11.6643 C.3     1  UNL1        0.0219
      6 C          62.7047   82.1982   11.7341 C.3     1  UNL1        0.0805
      7 C          62.7247   83.6619   12.1034 C.ar    1  UNL1        0.0004
      8 C          62.7453   83.9050   13.5835 C.ar    1  UNL1        0.0073
      9 S          62.7638   85.3877   13.8095 S.2     1  UNL1       -0.0766
     10 C          62.7545   86.0611   12.4691 C.ar    1  UNL1        0.0857
     11 C          62.7304   84.9945   11.4148 C.ar    1  UNL1        0.0703
     12 C          62.7447   82.7447   14.5342 C.3     1  UNL1        0.0486
     13 N          62.7672   87.5412   12.2259 N.am    1  UNL1       -0.2629
     14 C          63.6640   88.4272   13.0388 C.2     1  UNL1        0.3085
     15 O          64.5481   87.8331   14.0949 O.2     1  UNL1       -0.2521
     16 N          63.6766   89.9072   12.7955 N.am    1  UNL1       -0.2680
     17 H          62.1870   87.9311   11.5327 H       1  UNL1        0.1569
     18 H          63.0964   90.2971   12.1024 H       1  UNL1        0.1564
     19 C          64.5735   90.7933   13.6084 C.ar    1  UNL1        0.0516
     20 C          64.3187   90.9750   15.0754 C.ar    1  UNL1        0.0156
     21 C          65.2155   91.8610   15.8882 C.ar    1  UNL1        0.0127
     22 C          66.3670   92.5653   15.2341 C.ar    1  UNL1        0.0578
     23 CL         67.2638   93.4514   16.0470 Cl      1  UNL1       -0.0822
     24 C          66.6218   92.3836   13.7671 C.ar    1  UNL1        0.0127
     25 C          65.7250   91.4976   12.9543 C.ar    1  UNL1        0.0156
     26 C          62.7146   85.2206    9.9320 C.2     1  UNL1        0.2442
     27 N          63.4405   84.2752    9.0214 N.am    1  UNL1       -0.3253
     28 O          61.9730   86.3922    9.3599 O.2     1  UNL1       -0.2703
     29 H          63.9273   83.5062    9.3969 H       1  UNL1        0.1453
     30 H          63.4302   84.4236    8.0482 H       1  UNL1        0.1453
@<TRIPOS>BOND
     1     1     2    1
     2     2     3    1
     3     3     4    1
     4     4     5    1
     5     6     5    1
     6     6     7    1
     7     7     8   ar
     8     8     9   ar
     9     9    10   ar
    10    10    13    1
    11    13    14   am
    12    14    15    2
    13    14    16   am
    14    16    19    1
    15    19    20   ar
    16    20    21   ar
    17    21    22   ar
    18    22    23    1
    19    22    24   ar
    20    24    25   ar
    21    10    11   ar
    22    11    26    1
    23    26    27   am
    24    26    28    2
    25     8    12    1
    26     6     2    1
    27    11     7   ar
    28    12     3    1
    29    25    19   ar
    30    13    17    1
    31    16    18    1
    32    27    29    1
    33    27    30    1
@<TRIPOS>MOLECULE
*****
 30 33 0 0 0
SMALL
GASTEIGER

@<TRIPOS>ATOM
      1 C          64.7832   92.1974   11.6557 C.3     1  UNL1        0.0898
      2 N          65.2032   92.8739   11.6208 N.3     1  UNL1       -0.2701
      3 C          65.0818   93.5422   10.2834 C.3     1  UNL1        0.0627
      4 C          65.9016   94.7980   10.3165 C.3     1  UNL1        0.0181
      5 C          66.5297   94.9057   11.6744 C.3     1  UNL1        0.0219
      6 C          66.0980   93.7166   12.4805 C.3     1  UNL1        0.0805
      7 C          65.5118   92.4436   13.0417 C.ar    1  UNL1        0.0004
      8 C          64.6388   91.7076   12.0689 C.ar    1  UNL1        0.0073
      9 S          64.1259   90.4728   12.7487 S.2     1  UNL1       -0.0766
     10 C          64.6818   90.4457   14.1416 C.ar    1  UNL1        0.0857
     11 C          65.5383   91.6637   14.3227 C.ar    1  UNL1        0.0703
     12 C          64.4239   92.2569   10.6897 C.3     1  UNL1        0.0486
     13 N          64.4260   89.3864   15.1725 N.am    1  UNL1       -0.2629
     14 C          64.1353   87.9784   14.7449 C.2     1  UNL1        0.3085
     15 O          64.1004   87.6295   13.2865 O.2     1  UNL1       -0.2521
     16 N          63.8796   86.9192   15.7757 N.am    1  UNL1       -0.2680
     17 H          64.4489   89.6154   16.1297 H       1  UNL1        0.1569
     18 H          63.9025   87.1482   16.7330 H       1  UNL1        0.1564
     19 C          63.5889   85.5111   15.3482 C.ar    1  UNL1        0.0516
     20 C          62.3028   84.8544   15.7539 C.ar    1  UNL1        0.0156
     21 C          62.0122   83.4463   15.3264 C.ar    1  UNL1        0.0127
     22 C          63.0077   82.6949   14.4930 C.ar    1  UNL1        0.0578
     23 CL         62.7170   81.2868   14.0654 Cl      1  UNL1       -0.0822
     24 C          64.2937   83.3516   14.0872 C.ar    1  UNL1        0.0127
     25 C          64.5844   84.7597   14.5148 C.ar    1  UNL1        0.0156
     26 C          66.2894   92.0364   15.5664 C.2     1  UNL1        0.2442
     27 N          65.5791   92.7263   16.6932 N.am    1  UNL1       -0.3253
     28 O          67.7508   91.7192   15.6834 O.2     1  UNL1       -0.2703
     29 H          64.6200   92.9345   16.6164 H       1  UNL1        0.1453
     30 H          66.0722   92.9709   17.5095 H       1  UNL1        0.1453
@<TRIPOS>BOND
     1     1     2    1
     2     2     3    1
     3     3     4    1
     4     4     5    1
     5     6     5    1
     6     6     7    1
     7     7     8   ar
     8     8     9   ar
     9     9    10   ar
    10    10    13    1
    11    13    14   am
    12    14    15    2
    13    14    16   am
    14    16    19    1
    15    19    20   ar
    16    20    21   ar
    17    21    22   ar
    18    22    23    1
    19    22    24   ar
    20    24    25   ar
    21    10    11   ar
    22    11    26    1
    23    26    27   am
    24    26    28    2
    25     8    12    1
    26     6     2    1
    27    11     7   ar
    28    12     3    1
    29    25    19   ar
    30    13    17    1
    31    16    18    1
    32    27    29    1
    33    27    30    1
@<TRIPOS>MOLECULE
*****
 30 33 0 0 0
SMALL
GASTEIGER

@<TRIPOS>ATOM
      1 C          65.8447   92.3491   13.3340 C.3     1  UNL1        0.0898
      2 N          65.6715   92.6584   12.6201 N.3     1  UNL1       -0.2701
      3 C          66.5698   93.8085   12.2732 C.3     1  UNL1        0.0627
      4 C          66.1679   94.3193   10.9214 C.3     1  UNL1        0.0181
      5 C          65.0211   93.4849   10.4327 C.3     1  UNL1        0.0219
      6 C          64.7144   92.4585   11.4826 C.3     1  UNL1        0.0805
      7 C          64.6336   91.5551   12.6896 C.ar    1  UNL1        0.0004
      8 C          65.6517   91.8737   13.7441 C.ar    1  UNL1        0.0073
      9 S          65.4622   90.9097   14.8776 S.2     1  UNL1       -0.0766
     10 C          64.3270   89.9953   14.5236 C.ar    1  UNL1        0.0857
     11 C          63.8149   90.3943   13.1713 C.ar    1  UNL1        0.0703
     12 C          66.6198   93.0003   13.5359 C.3     1  UNL1        0.0486
     13 N          63.7969   88.8782   15.3728 N.am    1  UNL1       -0.2629
     14 C          63.8170   87.4697   14.8573 C.2     1  UNL1        0.3085
     15 O          64.3671   87.1783   13.4926 O.2     1  UNL1       -0.2521
     16 N          63.2870   86.3527   15.7066 N.am    1  UNL1       -0.2680
     17 H          63.4359   89.0695   16.2685 H       1  UNL1        0.1569
     18 H          62.9259   86.5440   16.6023 H       1  UNL1        0.1564
     19 C          63.3070   84.9441   15.1911 C.ar    1  UNL1        0.0516
     20 C          62.0491   84.1270   15.1925 C.ar    1  UNL1        0.0156
     21 C          62.0692   82.7185   14.6770 C.ar    1  UNL1        0.0127
     22 C          63.3472   82.1272   14.1601 C.ar    1  UNL1        0.0578
     23 CL         63.3672   80.7186   13.6447 Cl      1  UNL1       -0.0822
     24 C          64.6050   82.9443   14.1587 C.ar    1  UNL1        0.0127
     25 C          64.5850   84.3528   14.6742 C.ar    1  UNL1        0.0156
     26 C          62.6828   89.7462   12.4308 C.2     1  UNL1        0.2442
     27 N          61.2939   89.7912   12.9955 N.am    1  UNL1       -0.3253
     28 O          62.9397   89.0530   11.1256 O.2     1  UNL1       -0.2703
     29 H          61.1253   90.2461   13.8522 H       1  UNL1        0.1453
     30 H          60.5509   89.3658   12.5095 H       1  UNL1        0.1453
@<TRIPOS>BOND
     1     1     2    1
     2     2     3    1
     3     3     4    1
     4     4     5    1
     5     6     5    1
     6     6     7    1
     7     7     8   ar
     8     8     9   ar
     9     9    10   ar
    10    10    13    1
    11    13    14   am
    12    14    15    2
    13    14    16   am
    14    16    19    1
    15    19    20   ar
    16    20    21   ar
    17    21    22   ar
    18    22    23    1
    19    22    24   ar
    20    24    25   ar
    21    10    11   ar
    22    11    26    1
    23    26    27   am
    24    26    28    2
    25     8    12    1
    26     6     2    1
    27    11     7   ar
    28    12     3    1
    29    25    19   ar
    30    13    17    1
    31    16    18    1
    32    27    29    1
    33    27    30    1
@<TRIPOS>MOLECULE
*****
 30 33 0 0 0
SMALL
GASTEIGER

@<TRIPOS>ATOM
      1 C          60.1714   88.8623    9.1623 C.3     1  UNL1        0.0898
      2 N          60.2446   88.1658    8.7816 N.3     1  UNL1       -0.2701
      3 C          59.5606   88.1805    7.4467 C.3     1  UNL1        0.0627
      4 C          59.7532   86.8350    6.8123 C.3     1  UNL1        0.0181
      5 C          60.5562   85.9886    7.7551 C.3     1  UNL1        0.0219
      6 C          60.8599   86.8111    8.9722 C.3     1  UNL1        0.0805
      7 C          61.0099   87.8543   10.0532 C.ar    1  UNL1        0.0004
      8 C          60.3436   89.1572    9.7233 C.ar    1  UNL1        0.0073
      9 S          60.5677   90.0961   10.8715 S.2     1  UNL1       -0.0766
     10 C          61.3724   89.3735   11.9109 C.ar    1  UNL1        0.0857
     11 C          61.6457   87.9881   11.4051 C.ar    1  UNL1        0.0703
     12 C          59.6190   89.3203    8.4201 C.3     1  UNL1        0.0486
     13 N          61.8245   89.9375   13.2253 N.am    1  UNL1       -0.2629
     14 C          63.2140   90.4838   13.3689 C.2     1  UNL1        0.3085
     15 O          64.1515   90.4663   12.1981 O.2     1  UNL1       -0.2521
     16 N          63.6660   91.0477   14.6833 N.am    1  UNL1       -0.2680
     17 H          61.2092   89.9490   13.9938 H       1  UNL1        0.1569
     18 H          63.0507   91.0592   15.4517 H       1  UNL1        0.1564
     19 C          65.0556   91.5941   14.8270 C.ar    1  UNL1        0.0516
     20 C          65.4753   92.2484   16.1098 C.ar    1  UNL1        0.0156
     21 C          66.8649   92.7948   16.2534 C.ar    1  UNL1        0.0127
     22 C          67.8347   92.6869   15.1141 C.ar    1  UNL1        0.0578
     23 CL         69.2243   93.2333   15.2578 Cl      1  UNL1       -0.0822
     24 C          67.4149   92.0326   13.8313 C.ar    1  UNL1        0.0127
     25 C          66.0254   91.4862   13.6877 C.ar    1  UNL1        0.0156
     26 C          62.4190   86.9232   12.1249 C.2     1  UNL1        0.2442
     27 N          62.0601   85.4790   11.9369 N.am    1  UNL1       -0.3253
     28 O          63.5511   87.3026   13.0328 O.2     1  UNL1       -0.2703
     29 H          61.3170   85.2300   11.3410 H       1  UNL1        0.1453
     30 H          62.5676   84.7801   12.4093 H       1  UNL1        0.1453
@<TRIPOS>BOND
     1     1     2    1
     2     2     3    1
     3     3     4    1
     4     4     5    1
     5     6     5    1
     6     6     7    1
     7     7     8   ar
     8     8     9   ar
     9     9    10   ar
    10    10    13    1
    11    13    14   am
    12    14    15    2
    13    14    16   am
    14    16    19    1
    15    19    20   ar
    16    20    21   ar
    17    21    22   ar
    18    22    23    1
    19    22    24   ar
    20    24    25   ar
    21    10    11   ar
    22    11    26    1
    23    26    27   am
    24    26    28    2
    25     8    12    1
    26     6     2    1
    27    11     7   ar
    28    12     3    1
    29    25    19   ar
    30    13    17    1
    31    16    18    1
    32    27    29    1
    33    27    30    1
@<TRIPOS>MOLECULE
*****
 30 33 0 0 0
SMALL
GASTEIGER

@<TRIPOS>ATOM
      1 C          65.4876   92.1997   13.1888 C.3     1  UNL1        0.0898
      2 N          65.7973   92.4026   13.8947 N.3     1  UNL1       -0.2701
      3 C          66.7553   93.5510   13.7789 C.3     1  UNL1        0.0627
      4 C          67.2810   93.8563   15.1501 C.3     1  UNL1        0.0181
      5 C          66.6479   92.8965   16.1135 C.3     1  UNL1        0.0219
      6 C          65.7310   91.9981   15.3376 C.3     1  UNL1        0.0805
      7 C          64.9003   91.2558   14.3187 C.ar    1  UNL1        0.0004
      8 C          65.0693   91.7706   12.9199 C.ar    1  UNL1        0.0073
      9 S          64.1958   90.9521   12.0161 S.2     1  UNL1       -0.0766
     10 C          63.4868   89.9315   12.8562 C.ar    1  UNL1        0.0857
     11 C          63.9223   90.1192   14.2793 C.ar    1  UNL1        0.0703
     12 C          65.9968   92.9182   12.6500 C.3     1  UNL1        0.0486
     13 N          62.5134   88.9035   12.3603 N.am    1  UNL1       -0.2629
     14 C          62.8550   87.4454   12.4436 C.2     1  UNL1        0.3085
     15 O          64.1700   87.0150   13.0229 O.2     1  UNL1       -0.2521
     16 N          61.8816   86.4175   11.9477 N.am    1  UNL1       -0.2680
     17 H          61.6503   89.1860   11.9801 H       1  UNL1        0.1569
     18 H          61.0185   86.7000   11.5675 H       1  UNL1        0.1564
     19 C          62.2232   84.9593   12.0310 C.ar    1  UNL1        0.0516
     20 C          62.1639   84.2493   13.3510 C.ar    1  UNL1        0.0156
     21 C          62.5055   82.7912   13.4343 C.ar    1  UNL1        0.0127
     22 C          62.9063   82.0429   12.1976 C.ar    1  UNL1        0.0578
     23 CL         63.2479   80.5846   12.2809 Cl      1  UNL1       -0.0822
     24 C          62.9655   82.7529   10.8776 C.ar    1  UNL1        0.0127
     25 C          62.6240   84.2110   10.7943 C.ar    1  UNL1        0.0156
     26 C          63.4607   89.3120   15.4564 C.2     1  UNL1        0.2442
     27 N          63.8826   87.8793   15.5950 N.am    1  UNL1       -0.3253
     28 O          62.5774   89.9377   16.4948 O.2     1  UNL1       -0.2703
     29 H          64.4623   87.4687   14.9135 H       1  UNL1        0.1453
     30 H          63.5797   87.3495   16.3676 H       1  UNL1        0.1453
@<TRIPOS>BOND
     1     1     2    1
     2     2     3    1
     3     3     4    1
     4     4     5    1
     5     6     5    1
     6     6     7    1
     7     7     8   ar
     8     8     9   ar
     9     9    10   ar
    10    10    13    1
    11    13    14   am
    12    14    15    2
    13    14    16   am
    14    16    19    1
    15    19    20   ar
    16    20    21   ar
    17    21    22   ar
    18    22    23    1
    19    22    24   ar
    20    24    25   ar
    21    10    11   ar
    22    11    26    1
    23    26    27   am
    24    26    28    2
    25     8    12    1
    26     6     2    1
    27    11     7   ar
    28    12     3    1
    29    25    19   ar
    30    13    17    1
    31    16    18    1
    32    27    29    1
    33    27    30    1
