@<TRIPOS>MOLECULE
*****
 31 35 0 0 0
SMALL
GASTEIGER

@<TRIPOS>ATOM
      1 N          63.6712   87.4999   14.0491 N.pl3   1  UNL1       -0.2891
      2 C          64.4405   88.4456   14.9230 C.3     1  UNL1        0.1095
      3 C          64.7282   89.8393   14.4487 C.3     1  UNL1        0.0939
      4 N          64.2467   90.2872   13.1005 N.3     1  UNL1       -0.2695
      5 C          63.4774   89.3414   12.2266 C.3     1  UNL1        0.0939
      6 C          63.1897   87.9478   12.7009 C.3     1  UNL1        0.1095
      7 C          62.6183   80.3517   13.9036 C.3     1  UNL1        0.0311
      8 C          62.9414   81.1800   12.6954 C.ar    1  UNL1       -0.0190
      9 C          63.0641   80.5281   11.3501 C.ar    1  UNL1       -0.0041
     10 C          63.3872   81.3563   10.1420 C.ar    1  UNL1        0.0012
     11 C          63.5877   82.8365   10.2792 C.ar    1  UNL1        0.0191
     12 C          63.4650   83.4884   11.6245 C.ar    1  UNL1        0.0825
     13 N          63.6075   84.9151   12.0653 N.ar    1  UNL1       -0.2410
     14 C          63.3725   84.9686   13.5458 C.ar    1  UNL1        0.1283
     15 C          63.3834   86.1063   14.5233 C.ar    1  UNL1        0.1526
     16 N          63.1065   85.8503   15.9751 N.ar    1  UNL1       -0.2091
     17 C          62.8187   84.4566   16.4494 C.ar    1  UNL1        0.1763
     18 N          62.8078   83.3190   15.4718 N.ar    1  UNL1       -0.3348
     19 C          63.0847   83.5749   14.0200 C.ar    1  UNL1        0.0795
     20 C          63.1418   82.6601   12.8326 C.ar    1  UNL1        0.0309
     21 H          62.6189   82.4043   15.7831 H       1  UNL1        0.1675
     22 C          64.5345   91.6808   12.6263 C.3     1  UNL1        0.0769
     23 C          65.9354   92.2150   12.6738 C.3     1  UNL1        0.0437
     24 C          66.4543   93.0605   11.5488 C.ar    1  UNL1       -0.0184
     25 C          66.1305   94.5242   11.4995 C.ar    1  UNL1       -0.0018
     26 C          66.6494   95.3698   10.3744 C.ar    1  UNL1        0.0316
     27 C          67.4922   94.7515    9.2985 C.ar    1  UNL1        0.1674
     28 F          68.0111   95.5970    8.1734 F       1  UNL1       -0.2018
     29 C          67.8160   93.2877    9.3478 C.ar    1  UNL1        0.1671
     30 F          68.6588   92.6694    8.2719 F       1  UNL1       -0.2018
     31 C          67.2971   92.4422   10.4728 C.ar    1  UNL1        0.0277
@<TRIPOS>BOND
     1     7     8    1
     2     8     9   ar
     3     9    10   ar
     4    10    11   ar
     5    11    12   ar
     6    12    13   ar
     7    13    14   ar
     8    14    15   ar
     9    15     1    1
    10     1     2    1
    11     2     3    1
    12     3     4    1
    13     4    22    1
    14    22    23    1
    15    23    24    1
    16    24    25   ar
    17    25    26   ar
    18    26    27   ar
    19    27    28    1
    20    27    29   ar
    21    29    30    1
    22    29    31   ar
    23     4     5    1
    24     5     6    1
    25    15    16   ar
    26    16    17   ar
    27    17    18   ar
    28    18    19   ar
    29    19    20   ar
    30    20     8   ar
    31    20    12   ar
    32    19    14    1
    33     6     1    1
    34    31    24   ar
    35    18    21    1
@<TRIPOS>MOLECULE
*****
 31 35 0 0 0
SMALL
GASTEIGER

@<TRIPOS>ATOM
      1 N          59.5517   89.2515    7.0718 N.pl3   1  UNL1       -0.2891
      2 C          60.2410   89.7565    8.3045 C.3     1  UNL1        0.1095
      3 C          60.7189   88.7888    9.3464 C.3     1  UNL1        0.0939
      4 N          60.5073   87.3162    9.1554 N.3     1  UNL1       -0.2695
      5 C          59.8179   86.8111    7.9226 C.3     1  UNL1        0.0939
      6 C          59.3401   87.7788    6.8809 C.3     1  UNL1        0.1095
      7 C          59.6818   93.8703    1.5152 C.3     1  UNL1        0.0311
      8 C          60.8932   93.1715    2.0578 C.ar    1  UNL1       -0.0190
      9 C          62.2386   93.4149    1.4410 C.ar    1  UNL1       -0.0041
     10 C          63.4499   92.7161    1.9836 C.ar    1  UNL1        0.0012
     11 C          63.3158   91.7740    3.1431 C.ar    1  UNL1        0.0191
     12 C          61.9703   91.5307    3.7599 C.ar    1  UNL1        0.0825
     13 N          61.5322   90.6638    4.9029 N.ar    1  UNL1       -0.2410
     14 C          60.0501   90.8268    5.0668 C.ar    1  UNL1        0.1283
     15 C          59.0739   90.2191    6.0300 C.ar    1  UNL1        0.1526
     16 N          57.6199   90.5791    5.9514 N.ar    1  UNL1       -0.2091
     17 C          57.1420   91.5467    4.9096 C.ar    1  UNL1        0.1763
     18 N          58.1182   92.1543    3.9464 N.ar    1  UNL1       -0.3348
     19 C          59.5723   91.7944    4.0249 C.ar    1  UNL1        0.0795
     20 C          60.7590   92.2294    3.2172 C.ar    1  UNL1        0.0309
     21 H          57.8046   92.7894    3.2626 H       1  UNL1        0.1675
     22 C          60.9851   86.3485   10.1972 C.3     1  UNL1        0.0769
     23 C          62.4329   85.9602   10.2524 C.3     1  UNL1        0.0437
     24 C          62.8501   84.7233   10.9913 C.ar    1  UNL1       -0.0184
     25 C          63.6350   83.6573   10.2861 C.ar    1  UNL1       -0.0018
     26 C          64.0521   82.4203   11.0250 C.ar    1  UNL1        0.0316
     27 C          63.6843   82.2494   12.4691 C.ar    1  UNL1        0.1674
     28 F          64.1014   81.0124   13.2080 F       1  UNL1       -0.2018
     29 C          62.8993   83.3154   13.1744 C.ar    1  UNL1        0.1671
     30 F          62.5315   83.1446   14.6185 F       1  UNL1       -0.2018
     31 C          62.4822   84.5523   12.4355 C.ar    1  UNL1        0.0277
@<TRIPOS>BOND
     1     7     8    1
     2     8     9   ar
     3     9    10   ar
     4    10    11   ar
     5    11    12   ar
     6    12    13   ar
     7    13    14   ar
     8    14    15   ar
     9    15     1    1
    10     1     2    1
    11     2     3    1
    12     3     4    1
    13     4    22    1
    14    22    23    1
    15    23    24    1
    16    24    25   ar
    17    25    26   ar
    18    26    27   ar
    19    27    28    1
    20    27    29   ar
    21    29    30    1
    22    29    31   ar
    23     4     5    1
    24     5     6    1
    25    15    16   ar
    26    16    17   ar
    27    17    18   ar
    28    18    19   ar
    29    19    20   ar
    30    20     8   ar
    31    20    12   ar
    32    19    14    1
    33     6     1    1
    34    31    24   ar
    35    18    21    1
@<TRIPOS>MOLECULE
*****
 31 35 0 0 0
SMALL
GASTEIGER

@<TRIPOS>ATOM
      1 N          61.4339   88.1225   10.0207 N.pl3   1  UNL1       -0.2891
      2 C          60.9788   87.0477    9.0786 C.3     1  UNL1        0.1095
      3 C          60.1714   87.4057    7.8661 C.3     1  UNL1        0.0939
      4 N          59.8192   88.8385    7.5957 N.3     1  UNL1       -0.2695
      5 C          60.2744   89.9133    8.5378 C.3     1  UNL1        0.0939
      6 C          61.0816   89.5554    9.7503 C.3     1  UNL1        0.1095
      7 C          64.8022   84.1179   15.0051 C.3     1  UNL1        0.0311
      8 C          64.0448   83.5513   13.8408 C.ar    1  UNL1       -0.0190
      9 C          63.9528   82.0654   13.6575 C.ar    1  UNL1       -0.0041
     10 C          63.1955   81.4989   12.4932 C.ar    1  UNL1        0.0012
     11 C          62.5301   82.4182   11.5124 C.ar    1  UNL1        0.0191
     12 C          62.6221   83.9040   11.6958 C.ar    1  UNL1        0.0825
     13 N          62.0732   85.0497   10.8982 N.ar    1  UNL1       -0.2410
     14 C          62.4913   86.3243   11.5694 C.ar    1  UNL1        0.1283
     15 C          62.2412   87.7646   11.2332 C.ar    1  UNL1        0.1526
     16 N          62.7984   88.8470   12.1094 N.ar    1  UNL1       -0.2091
     17 C          63.6057   88.4891   13.3219 C.ar    1  UNL1        0.1763
     18 N          63.8558   87.0488   13.6581 N.ar    1  UNL1       -0.3348
     19 C          63.2986   85.9664   12.7819 C.ar    1  UNL1        0.0795
     20 C          63.3794   84.4706   12.8600 C.ar    1  UNL1        0.0309
     21 H          64.3857   86.8139   14.4539 H       1  UNL1        0.1675
     22 C          59.0119   89.1964    6.3832 C.3     1  UNL1        0.0769
     23 C          58.8324   90.6354    5.9997 C.3     1  UNL1        0.0437
     24 C          59.7144   91.2481    4.9524 C.ar    1  UNL1       -0.0184
     25 C          59.1874   92.3460    4.0768 C.ar    1  UNL1       -0.0018
     26 C          60.0695   92.9587    3.0295 C.ar    1  UNL1        0.0316
     27 C          61.4784   92.4734    2.8579 C.ar    1  UNL1        0.1674
     28 F          62.3603   93.0861    1.8107 F       1  UNL1       -0.2018
     29 C          62.0053   91.3754    3.7336 C.ar    1  UNL1        0.1671
     30 F          63.4142   90.8901    3.5620 F       1  UNL1       -0.2018
     31 C          61.1233   90.7628    4.7808 C.ar    1  UNL1        0.0277
@<TRIPOS>BOND
     1     7     8    1
     2     8     9   ar
     3     9    10   ar
     4    10    11   ar
     5    11    12   ar
     6    12    13   ar
     7    13    14   ar
     8    14    15   ar
     9    15     1    1
    10     1     2    1
    11     2     3    1
    12     3     4    1
    13     4    22    1
    14    22    23    1
    15    23    24    1
    16    24    25   ar
    17    25    26   ar
    18    26    27   ar
    19    27    28    1
    20    27    29   ar
    21    29    30    1
    22    29    31   ar
    23     4     5    1
    24     5     6    1
    25    15    16   ar
    26    16    17   ar
    27    17    18   ar
    28    18    19   ar
    29    19    20   ar
    30    20     8   ar
    31    20    12   ar
    32    19    14    1
    33     6     1    1
    34    31    24   ar
    35    18    21    1
@<TRIPOS>MOLECULE
*****
 31 35 0 0 0
SMALL
GASTEIGER

@<TRIPOS>ATOM
      1 N          62.2525   88.8817   11.0196 N.pl3   1  UNL1       -0.2891
      2 C          62.3747   87.5387   10.3630 C.3     1  UNL1        0.1095
      3 C          61.4970   87.1912    9.1972 C.3     1  UNL1        0.0939
      4 N          60.4973   88.1868    8.6879 N.3     1  UNL1       -0.2695
      5 C          60.3752   89.5299    9.3445 C.3     1  UNL1        0.0939
      6 C          61.2527   89.8774   10.5103 C.3     1  UNL1        0.1095
      7 C          66.8601   92.5570   15.2016 C.3     1  UNL1        0.0311
      8 C          66.3768   93.0305   13.8628 C.ar    1  UNL1       -0.0190
      9 C          66.8521   94.3437   13.3154 C.ar    1  UNL1       -0.0041
     10 C          66.3688   94.8172   11.9767 C.ar    1  UNL1        0.0012
     11 C          65.4103   93.9776   11.1854 C.ar    1  UNL1        0.0191
     12 C          64.9350   92.6644   11.7328 C.ar    1  UNL1        0.0825
     13 N          63.9984   91.6286   11.1852 N.ar    1  UNL1       -0.2410
     14 C          63.9028   90.5149   12.1855 C.ar    1  UNL1        0.1283
     15 C          63.1301   89.2293   12.1854 C.ar    1  UNL1        0.1526
     16 N          63.2349   88.2911   13.3511 N.ar    1  UNL1       -0.2091
     17 C          64.1124   88.6387   14.5169 C.ar    1  UNL1        0.1763
     18 N          64.8852   89.9243   14.5170 N.ar    1  UNL1       -0.3348
     19 C          64.7804   90.8624   13.3513 C.ar    1  UNL1        0.0795
     20 C          65.4183   92.1909   13.0715 C.ar    1  UNL1        0.0309
     21 H          65.4611   90.1524   15.2821 H       1  UNL1        0.1675
     22 C          59.6198   87.8393    7.5221 C.3     1  UNL1        0.0769
     23 C          58.5526   88.7943    7.0757 C.3     1  UNL1        0.0437
     24 C          58.8860   89.8943    6.1119 C.ar    1  UNL1       -0.0184
     25 C          57.8074   90.8137    5.6211 C.ar    1  UNL1       -0.0018
     26 C          58.1408   91.9138    4.6573 C.ar    1  UNL1        0.0316
     27 C          59.5528   92.0943    4.1844 C.ar    1  UNL1        0.1674
     28 F          59.8861   93.1943    3.2207 F       1  UNL1       -0.2018
     29 C          60.6315   91.1748    4.6753 C.ar    1  UNL1        0.1671
     30 F          62.0435   91.3553    4.2025 F       1  UNL1       -0.2018
     31 C          60.2981   90.0748    5.6391 C.ar    1  UNL1        0.0277
@<TRIPOS>BOND
     1     7     8    1
     2     8     9   ar
     3     9    10   ar
     4    10    11   ar
     5    11    12   ar
     6    12    13   ar
     7    13    14   ar
     8    14    15   ar
     9    15     1    1
    10     1     2    1
    11     2     3    1
    12     3     4    1
    13     4    22    1
    14    22    23    1
    15    23    24    1
    16    24    25   ar
    17    25    26   ar
    18    26    27   ar
    19    27    28    1
    20    27    29   ar
    21    29    30    1
    22    29    31   ar
    23     4     5    1
    24     5     6    1
    25    15    16   ar
    26    16    17   ar
    27    17    18   ar
    28    18    19   ar
    29    19    20   ar
    30    20     8   ar
    31    20    12   ar
    32    19    14    1
    33     6     1    1
    34    31    24   ar
    35    18    21    1
@<TRIPOS>MOLECULE
*****
 31 35 0 0 0
SMALL
GASTEIGER

@<TRIPOS>ATOM
      1 N          63.5459   87.3420   13.9477 N.pl3   1  UNL1       -0.2891
      2 C          64.2467   88.3431   14.8174 C.3     1  UNL1        0.1095
      3 C          64.4620   89.7437   14.3251 C.3     1  UNL1        0.0939
      4 N          63.9765   90.1430   12.9632 N.3     1  UNL1       -0.2695
      5 C          63.2756   89.1418   12.0935 C.3     1  UNL1        0.0939
      6 C          63.0603   87.7413   12.5857 C.3     1  UNL1        0.1095
      7 C          62.7338   80.1613   13.8761 C.3     1  UNL1        0.0311
      8 C          62.9668   80.9946   12.6508 C.ar    1  UNL1       -0.0190
      9 C          63.0437   80.3411   11.3028 C.ar    1  UNL1       -0.0041
     10 C          63.2767   81.1744   10.0776 C.ar    1  UNL1        0.0012
     11 C          63.4327   82.6612   10.2002 C.ar    1  UNL1        0.0191
     12 C          63.3558   83.3147   11.5481 C.ar    1  UNL1        0.0825
     13 N          63.4712   84.7474   11.9770 N.ar    1  UNL1       -0.2410
     14 C          63.3095   84.7997   13.4674 C.ar    1  UNL1        0.1283
     15 C          63.3306   85.9415   14.4399 C.ar    1  UNL1        0.1526
     16 N          63.1363   85.6829   15.9046 N.ar    1  UNL1       -0.2091
     17 C          62.9210   84.2824   16.3968 C.ar    1  UNL1        0.1763
     18 N          62.8999   83.1405   15.4242 N.ar    1  UNL1       -0.3348
     19 C          63.0942   83.3992   13.9596 C.ar    1  UNL1        0.0795
     20 C          63.1228   82.4814   12.7734 C.ar    1  UNL1        0.0309
     21 H          62.7586   82.2213   15.7473 H       1  UNL1        0.1675
     22 C          64.1918   91.5435   12.4710 C.3     1  UNL1        0.0769
     23 C          65.5742   92.0135   12.1274 C.3     1  UNL1        0.0437
     24 C          66.5625   92.2985   13.2192 C.ar    1  UNL1       -0.0184
     25 C          66.0951   92.8780   14.5214 C.ar    1  UNL1       -0.0018
     26 C          67.0835   93.1630   15.6132 C.ar    1  UNL1        0.0316
     27 C          68.5392   92.8685   15.4027 C.ar    1  UNL1        0.1674
     28 F          69.5275   93.1535   16.4945 F       1  UNL1       -0.2018
     29 C          69.0065   92.2890   14.1005 C.ar    1  UNL1        0.1671
     30 F          70.4622   91.9945   13.8901 F       1  UNL1       -0.2018
     31 C          68.0182   92.0040   13.0088 C.ar    1  UNL1        0.0277
@<TRIPOS>BOND
     1     7     8    1
     2     8     9   ar
     3     9    10   ar
     4    10    11   ar
     5    11    12   ar
     6    12    13   ar
     7    13    14   ar
     8    14    15   ar
     9    15     1    1
    10     1     2    1
    11     2     3    1
    12     3     4    1
    13     4    22    1
    14    22    23    1
    15    23    24    1
    16    24    25   ar
    17    25    26   ar
    18    26    27   ar
    19    27    28    1
    20    27    29   ar
    21    29    30    1
    22    29    31   ar
    23     4     5    1
    24     5     6    1
    25    15    16   ar
    26    16    17   ar
    27    17    18   ar
    28    18    19   ar
    29    19    20   ar
    30    20     8   ar
    31    20    12   ar
    32    19    14    1
    33     6     1    1
    34    31    24   ar
    35    18    21    1
@<TRIPOS>MOLECULE
*****
 31 35 0 0 0
SMALL
GASTEIGER

@<TRIPOS>ATOM
      1 N          63.5158   89.0104   12.8062 N.pl3   1  UNL1       -0.2891
      2 C          63.4483   90.4147   12.2836 C.3     1  UNL1        0.1095
      3 C          64.0879   91.5326   13.0526 C.3     1  UNL1        0.0939
      4 N          64.7950   91.2461   14.3441 N.3     1  UNL1       -0.2695
      5 C          64.8625   89.8417   14.8667 C.3     1  UNL1        0.0939
      6 C          64.2229   88.7239   14.0977 C.3     1  UNL1        0.1095
      7 C          59.6200   85.5742    7.7820 C.3     1  UNL1        0.0311
      8 C          59.7791   87.0641    7.8508 C.ar    1  UNL1       -0.0190
      9 C          59.1059   87.9380    6.8343 C.ar    1  UNL1       -0.0041
     10 C          59.2650   89.4279    6.9031 C.ar    1  UNL1        0.0012
     11 C          60.0973   90.0440    7.9883 C.ar    1  UNL1        0.0191
     12 C          60.7704   89.1702    9.0048 C.ar    1  UNL1        0.0825
     13 N          61.6462   89.4891   10.1801 N.ar    1  UNL1       -0.2410
     14 C          62.0284   88.1962   10.8377 C.ar    1  UNL1        0.1283
     15 C          62.8762   87.8925   12.0373 C.ar    1  UNL1        0.1526
     16 N          63.0843   86.4708   12.4680 N.ar    1  UNL1       -0.2091
     17 C          62.4447   85.3529   11.6991 C.ar    1  UNL1        0.1763
     18 N          61.5970   85.6567   10.4995 N.ar    1  UNL1       -0.3348
     19 C          61.3888   87.0783   10.0688 C.ar    1  UNL1        0.0795
     20 C          60.6113   87.6802    8.9360 C.ar    1  UNL1        0.0309
     21 H          61.1772   84.9229    9.9949 H       1  UNL1        0.1675
     22 C          65.4346   92.3640   15.1130 C.3     1  UNL1        0.0769
     23 C          66.6436   93.0589   14.5602 C.3     1  UNL1        0.0437
     24 C          66.7635   93.2947   13.0837 C.ar    1  UNL1       -0.0184
     25 C          66.2446   94.5674   12.4830 C.ar    1  UNL1       -0.0018
     26 C          66.3646   94.8032   11.0064 C.ar    1  UNL1        0.0316
     27 C          67.0034   93.7664   10.1307 C.ar    1  UNL1        0.1674
     28 F          67.1233   94.0022    8.6543 F       1  UNL1       -0.2018
     29 C          67.5223   92.4936   10.7316 C.ar    1  UNL1        0.1671
     30 F          68.1612   91.4568    9.8559 F       1  UNL1       -0.2018
     31 C          67.4024   92.2579   12.2080 C.ar    1  UNL1        0.0277
@<TRIPOS>BOND
     1     7     8    1
     2     8     9   ar
     3     9    10   ar
     4    10    11   ar
     5    11    12   ar
     6    12    13   ar
     7    13    14   ar
     8    14    15   ar
     9    15     1    1
    10     1     2    1
    11     2     3    1
    12     3     4    1
    13     4    22    1
    14    22    23    1
    15    23    24    1
    16    24    25   ar
    17    25    26   ar
    18    26    27   ar
    19    27    28    1
    20    27    29   ar
    21    29    30    1
    22    29    31   ar
    23     4     5    1
    24     5     6    1
    25    15    16   ar
    26    16    17   ar
    27    17    18   ar
    28    18    19   ar
    29    19    20   ar
    30    20     8   ar
    31    20    12   ar
    32    19    14    1
    33     6     1    1
    34    31    24   ar
    35    18    21    1
@<TRIPOS>MOLECULE
*****
 31 35 0 0 0
SMALL
GASTEIGER

@<TRIPOS>ATOM
      1 N          60.6786   87.9541    9.0437 N.pl3   1  UNL1       -0.2891
      2 C          60.0752   87.1388    7.9387 C.3     1  UNL1        0.1095
      3 C          59.3580   87.8190    6.8104 C.3     1  UNL1        0.0939
      4 N          59.2442   89.3145    6.7872 N.3     1  UNL1       -0.2695
      5 C          59.8477   90.1298    7.8922 C.3     1  UNL1        0.0939
      6 C          60.5648   89.4496    9.0204 C.3     1  UNL1        0.1095
      7 C          64.7140   87.0498   14.9703 C.3     1  UNL1        0.0311
      8 C          64.4160   88.3825   14.3498 C.ar    1  UNL1       -0.0190
      9 C          64.9683   89.6353   14.9624 C.ar    1  UNL1       -0.0041
     10 C          64.6703   90.9681   14.3420 C.ar    1  UNL1        0.0012
     11 C          63.8198   91.0480   13.1090 C.ar    1  UNL1        0.0191
     12 C          63.2675   89.7952   12.4964 C.ar    1  UNL1        0.0825
     13 N          62.4051   89.5630   11.2913 N.ar    1  UNL1       -0.2410
     14 C          62.1701   88.0867   11.1669 C.ar    1  UNL1        0.1283
     15 C          61.3958   87.2739   10.1720 C.ar    1  UNL1        0.1526
     16 N          61.3387   85.7810   10.3053 N.ar    1  UNL1       -0.2091
     17 C          62.0559   85.1008   11.4336 C.ar    1  UNL1        0.1763
     18 N          62.8302   85.9136   12.4285 N.ar    1  UNL1       -0.3348
     19 C          62.8873   87.4066   12.2951 C.ar    1  UNL1        0.0795
     20 C          63.5655   88.4625   13.1168 C.ar    1  UNL1        0.0309
     21 H          63.3009   85.4672   13.1690 H       1  UNL1        0.1675
     22 C          58.5270   89.9946    5.6589 C.3     1  UNL1        0.0769
     23 C          58.8238   91.4296    5.3381 C.3     1  UNL1        0.0437
     24 C          59.9186   91.7711    4.3713 C.ar    1  UNL1       -0.0184
     25 C          59.6775   92.7852    3.2929 C.ar    1  UNL1       -0.0018
     26 C          60.7724   93.1267    2.3260 C.ar    1  UNL1        0.0316
     27 C          62.1084   92.4540    2.4378 C.ar    1  UNL1        0.1674
     28 F          63.2032   92.7954    1.4710 F       1  UNL1       -0.2018
     29 C          62.3495   91.4397    3.5163 C.ar    1  UNL1        0.1671
     30 F          63.6855   90.7670    3.6280 F       1  UNL1       -0.2018
     31 C          61.2547   91.0983    4.4830 C.ar    1  UNL1        0.0277
@<TRIPOS>BOND
     1     7     8    1
     2     8     9   ar
     3     9    10   ar
     4    10    11   ar
     5    11    12   ar
     6    12    13   ar
     7    13    14   ar
     8    14    15   ar
     9    15     1    1
    10     1     2    1
    11     2     3    1
    12     3     4    1
    13     4    22    1
    14    22    23    1
    15    23    24    1
    16    24    25   ar
    17    25    26   ar
    18    26    27   ar
    19    27    28    1
    20    27    29   ar
    21    29    30    1
    22    29    31   ar
    23     4     5    1
    24     5     6    1
    25    15    16   ar
    26    16    17   ar
    27    17    18   ar
    28    18    19   ar
    29    19    20   ar
    30    20     8   ar
    31    20    12   ar
    32    19    14    1
    33     6     1    1
    34    31    24   ar
    35    18    21    1
@<TRIPOS>MOLECULE
*****
 31 35 0 0 0
SMALL
GASTEIGER

@<TRIPOS>ATOM
      1 N          63.4981   88.9473   12.6134 N.pl3   1  UNL1       -0.2891
      2 C          63.3356   90.2707   11.9264 C.3     1  UNL1        0.1095
      3 C          63.8831   91.5161   12.5584 C.3     1  UNL1        0.0939
      4 N          64.5931   91.4380   13.8774 N.3     1  UNL1       -0.2695
      5 C          64.7557   90.1146   14.5644 C.3     1  UNL1        0.0939
      6 C          64.2082   88.8693   13.9325 C.3     1  UNL1        0.1095
      7 C          61.9545   81.9635   11.5793 C.3     1  UNL1        0.0311
      8 C          62.7342   82.4894   12.7478 C.ar    1  UNL1       -0.0190
      9 C          63.2468   81.5444   13.7938 C.ar    1  UNL1       -0.0041
     10 C          64.0265   82.0704   14.9624 C.ar    1  UNL1        0.0012
     11 C          64.2936   83.5413   15.0848 C.ar    1  UNL1        0.0191
     12 C          63.7811   84.4862   14.0388 C.ar    1  UNL1        0.0825
     13 N          63.8872   85.9753   13.8927 N.ar    1  UNL1       -0.2410
     14 C          63.1731   86.3697   12.6340 C.ar    1  UNL1        0.1283
     15 C          62.9507   87.7020   11.9815 C.ar    1  UNL1        0.1526
     16 N          62.1807   87.7888   10.6972 N.ar    1  UNL1       -0.2091
     17 C          61.6332   86.5435   10.0652 C.ar    1  UNL1        0.1763
     18 N          61.8557   85.2112   10.7177 N.ar    1  UNL1       -0.3348
     19 C          62.6256   85.1244   12.0021 C.ar    1  UNL1        0.0795
     20 C          63.0013   83.9603   12.8703 C.ar    1  UNL1        0.0309
     21 H          61.4964   84.3939   10.3030 H       1  UNL1        0.1675
     22 C          65.1406   92.6834   14.5093 C.3     1  UNL1        0.0769
     23 C          66.4366   93.2628   14.0248 C.3     1  UNL1        0.0437
     24 C          66.6552   93.4895   12.5582 C.ar    1  UNL1       -0.0184
     25 C          66.2594   94.7945   11.9339 C.ar    1  UNL1       -0.0018
     26 C          66.4780   95.0211   10.4672 C.ar    1  UNL1        0.0316
     27 C          67.0924   93.9426    9.6251 C.ar    1  UNL1        0.1674
     28 F          67.3110   94.1692    8.1585 F       1  UNL1       -0.2018
     29 C          67.4882   92.6374   10.2495 C.ar    1  UNL1        0.1671
     30 F          68.1026   91.5589    9.4073 F       1  UNL1       -0.2018
     31 C          67.2696   92.4109   11.7160 C.ar    1  UNL1        0.0277
@<TRIPOS>BOND
     1     7     8    1
     2     8     9   ar
     3     9    10   ar
     4    10    11   ar
     5    11    12   ar
     6    12    13   ar
     7    13    14   ar
     8    14    15   ar
     9    15     1    1
    10     1     2    1
    11     2     3    1
    12     3     4    1
    13     4    22    1
    14    22    23    1
    15    23    24    1
    16    24    25   ar
    17    25    26   ar
    18    26    27   ar
    19    27    28    1
    20    27    29   ar
    21    29    30    1
    22    29    31   ar
    23     4     5    1
    24     5     6    1
    25    15    16   ar
    26    16    17   ar
    27    17    18   ar
    28    18    19   ar
    29    19    20   ar
    30    20     8   ar
    31    20    12   ar
    32    19    14    1
    33     6     1    1
    34    31    24   ar
    35    18    21    1
@<TRIPOS>MOLECULE
*****
 31 35 0 0 0
SMALL
GASTEIGER

@<TRIPOS>ATOM
      1 N          63.6762   88.0150   13.4320 N.pl3   1  UNL1       -0.2891
      2 C          64.0699   87.7909   14.8619 C.3     1  UNL1        0.1095
      3 C          63.8732   86.4437   15.4916 C.3     1  UNL1        0.0939
      4 N          63.2829   85.3207   14.6914 N.3     1  UNL1       -0.2695
      5 C          62.8893   85.5448   13.2614 C.3     1  UNL1        0.0939
      6 C          63.0859   86.8919   12.6318 C.3     1  UNL1        0.1095
      7 C          66.1337   94.7272   12.3667 C.3     1  UNL1        0.0311
      8 C          66.5374   93.8556   13.5189 C.ar    1  UNL1       -0.0190
      9 C          67.5102   94.3658   14.5403 C.ar    1  UNL1       -0.0041
     10 C          67.9139   93.4942   15.6925 C.ar    1  UNL1        0.0012
     11 C          67.3449   92.1126   15.8231 C.ar    1  UNL1        0.0191
     12 C          66.3721   91.6024   14.8017 C.ar    1  UNL1        0.0825
     13 N          65.6503   90.2943   14.6685 N.ar    1  UNL1       -0.2410
     14 C          64.8004   90.3573   13.4342 C.ar    1  UNL1        0.1283
     15 C          63.8729   89.3621   12.8022 C.ar    1  UNL1        0.1526
     16 N          63.1420   89.7140   11.5405 N.ar    1  UNL1       -0.2091
     17 C          63.3386   91.0611   10.9107 C.ar    1  UNL1        0.1763
     18 N          64.2661   92.0563   11.5427 N.ar    1  UNL1       -0.3348
     19 C          64.9970   91.7044   12.8044 C.ar    1  UNL1        0.0795
     20 C          65.9684   92.4740   13.6495 C.ar    1  UNL1        0.0309
     21 H          64.3952   92.9405   11.1293 H       1  UNL1        0.1675
     22 C          63.0863   83.9736   15.3212 C.3     1  UNL1        0.0769
     23 C          63.9352   82.8138   14.8919 C.3     1  UNL1        0.0437
     24 C          63.6712   82.1362   13.5800 C.ar    1  UNL1       -0.0184
     25 C          62.8743   80.8661   13.5389 C.ar    1  UNL1       -0.0018
     26 C          62.6103   80.1885   12.2269 C.ar    1  UNL1        0.0316
     27 C          63.1432   80.7810   10.9561 C.ar    1  UNL1        0.1674
     28 F          62.8792   80.1033    9.6442 F       1  UNL1       -0.2018
     29 C          63.9401   82.0511   10.9972 C.ar    1  UNL1        0.1671
     30 F          64.4730   82.6437    9.7264 F       1  UNL1       -0.2018
     31 C          64.2041   82.7287   12.3091 C.ar    1  UNL1        0.0277
@<TRIPOS>BOND
     1     7     8    1
     2     8     9   ar
     3     9    10   ar
     4    10    11   ar
     5    11    12   ar
     6    12    13   ar
     7    13    14   ar
     8    14    15   ar
     9    15     1    1
    10     1     2    1
    11     2     3    1
    12     3     4    1
    13     4    22    1
    14    22    23    1
    15    23    24    1
    16    24    25   ar
    17    25    26   ar
    18    26    27   ar
    19    27    28    1
    20    27    29   ar
    21    29    30    1
    22    29    31   ar
    23     4     5    1
    24     5     6    1
    25    15    16   ar
    26    16    17   ar
    27    17    18   ar
    28    18    19   ar
    29    19    20   ar
    30    20     8   ar
    31    20    12   ar
    32    19    14    1
    33     6     1    1
    34    31    24   ar
    35    18    21    1
