@<TRIPOS>MOLECULE
*****
 25 28 0 0 0
SMALL
GASTEIGER

@<TRIPOS>ATOM
      1 C          64.1193   91.1083   12.6623 C.ar    1  UNL1        0.1386
      2 C          63.6578   89.7550   13.1158 C.ar    1  UNL1        0.0369
      3 C          62.8684   88.8815   12.1863 C.ar    1  UNL1        0.0043
      4 C          62.5405   89.3613   10.8034 C.ar    1  UNL1        0.0152
      5 C          63.0020   90.7146   10.3500 C.ar    1  UNL1        0.0043
      6 C          63.7914   91.5881   11.2795 C.ar    1  UNL1        0.0369
      7 C          61.7512   88.4878    9.8740 C.2     1  UNL1        0.0763
      8 N          60.5325   89.0306    9.1885 N.2     1  UNL1       -0.1836
      9 N          59.7431   88.1571    8.2590 N.am    1  UNL1       -0.2062
     10 C          60.1724   86.7408    8.0151 C.2     1  UNL1        0.2410
     11 O          59.3830   85.8672    7.0857 O.2     1  UNL1       -0.2734
     12 C          61.3912   86.1978    8.7007 C.3     1  UNL1        0.0841
     13 C          62.6099   85.6550    9.3862 C.3     1  UNL1        0.0160
     14 C          62.1806   87.0713    9.6301 C.3     1  UNL1        0.0509
     15 H          58.9432   88.5134    7.8091 H       1  UNL1        0.1772
     16 O          64.9087   91.9819   13.5917 O.3     1  UNL1       -0.4754
     17 C          66.2494   91.5291   14.0890 C.3     1  UNL1        0.2068
     18 C          67.5023   92.0881   13.4824 C.3     1  UNL1        0.0646
     19 C          67.7334   91.9790   12.0044 C.3     1  UNL1        0.0759
     20 C          68.6546   92.3787    8.8994 C.3     1  UNL1        0.0173
     21 C          67.7292   93.2756    9.6669 C.3     1  UNL1        0.0576
     22 C          67.0648   94.5138    9.1421 C.3     1  UNL1        0.0174
     23 C          66.2307   95.0953   10.2449 C.3     1  UNL1        0.0187
     24 C          66.3797   94.2165   11.4514 C.3     1  UNL1        0.0721
     25 N          67.3058   93.0919   11.0942 N.3     1  UNL1       -0.2738
@<TRIPOS>BOND
     1    21    20    1
     2    21    22    1
     3    22    23    1
     4    23    24    1
     5    24    25    1
     6    25    19    1
     7    19    18    1
     8    18    17    1
     9    17    16    1
    10    16     1    1
    11     1     2   ar
    12     2     3   ar
    13     3     4   ar
    14     4     7    1
    15     7     8    2
    16     8     9    1
    17     9    10   am
    18    10    11    2
    19    10    12    1
    20    12    13    1
    21    14    13    1
    22     4     5   ar
    23     5     6   ar
    24    25    21    1
    25     6     1   ar
    26    14     7    1
    27    14    12    1
    28     9    15    1
@<TRIPOS>MOLECULE
*****
 25 28 0 0 0
SMALL
GASTEIGER

@<TRIPOS>ATOM
      1 C          62.8258   88.9395   12.2759 C.ar    1  UNL1        0.1386
      2 C          63.5622   88.4440   13.4852 C.ar    1  UNL1        0.0369
      3 C          64.5512   89.3340   14.1780 C.ar    1  UNL1        0.0043
      4 C          64.8036   90.7195   13.6615 C.ar    1  UNL1        0.0152
      5 C          64.0672   91.2149   12.4523 C.ar    1  UNL1        0.0043
      6 C          63.0783   90.3249   11.7595 C.ar    1  UNL1        0.0369
      7 C          65.7925   91.6095   14.3542 C.2     1  UNL1        0.0763
      8 N          65.3898   92.3599   15.5890 N.2     1  UNL1       -0.1836
      9 N          66.3787   93.2499   16.2818 N.am    1  UNL1       -0.2062
     10 C          67.7704   93.3896   15.7398 C.2     1  UNL1        0.2410
     11 O          68.7593   94.2796   16.4325 O.2     1  UNL1       -0.2734
     12 C          68.1732   92.6392   14.5049 C.3     1  UNL1        0.0841
     13 C          68.5759   91.8888   13.2702 C.3     1  UNL1        0.0160
     14 C          67.1842   91.7491   13.8122 C.3     1  UNL1        0.0509
     15 H          66.1144   93.7424   17.0922 H       1  UNL1        0.1772
     16 O          61.8369   88.0495   11.5832 O.3     1  UNL1       -0.4754
     17 C          62.3099   86.8255   10.8565 C.3     1  UNL1        0.2068
     18 C          62.0140   85.4632   11.4102 C.3     1  UNL1        0.0646
     19 C          62.9431   84.8422   12.4107 C.3     1  UNL1        0.0759
     20 C          63.8728   82.3465   10.5248 C.3     1  UNL1        0.0173
     21 C          63.2438   82.2392   11.8822 C.3     1  UNL1        0.0576
     22 C          62.9316   80.9660   12.6113 C.3     1  UNL1        0.0174
     23 C          62.3114   81.3262   13.9287 C.3     1  UNL1        0.0187
     24 C          62.2402   82.8221   14.0139 C.3     1  UNL1        0.0721
     25 N          62.8164   83.3864   12.7492 N.3     1  UNL1       -0.2738
@<TRIPOS>BOND
     1    21    20    1
     2    21    22    1
     3    22    23    1
     4    23    24    1
     5    24    25    1
     6    25    19    1
     7    19    18    1
     8    18    17    1
     9    17    16    1
    10    16     1    1
    11     1     2   ar
    12     2     3   ar
    13     3     4   ar
    14     4     7    1
    15     7     8    2
    16     8     9    1
    17     9    10   am
    18    10    11    2
    19    10    12    1
    20    12    13    1
    21    14    13    1
    22     4     5   ar
    23     5     6   ar
    24    25    21    1
    25     6     1   ar
    26    14     7    1
    27    14    12    1
    28     9    15    1
@<TRIPOS>MOLECULE
*****
 25 28 0 0 0
SMALL
GASTEIGER

@<TRIPOS>ATOM
      1 C          63.7874   89.3996   13.4167 C.ar    1  UNL1        0.1386
      2 C          63.1601   88.5761   12.3311 C.ar    1  UNL1        0.0369
      3 C          63.1122   87.0821   12.4557 C.ar    1  UNL1        0.0043
      4 C          63.6918   86.4115   13.6659 C.ar    1  UNL1        0.0152
      5 C          64.3191   87.2349   14.7514 C.ar    1  UNL1        0.0043
      6 C          64.3669   88.7289   14.6268 C.ar    1  UNL1        0.0369
      7 C          63.6439   84.9174   13.7905 C.2     1  UNL1        0.0763
      8 N          63.2575   84.2856   15.0948 N.2     1  UNL1       -0.1836
      9 N          63.2097   82.7915   15.2194 N.am    1  UNL1       -0.2062
     10 C          63.5483   81.9293   14.0396 C.2     1  UNL1        0.2410
     11 O          63.5005   80.4352   14.1642 O.2     1  UNL1       -0.2734
     12 C          63.9348   82.5611   12.7352 C.3     1  UNL1        0.0841
     13 C          64.3213   83.1930   11.4308 C.3     1  UNL1        0.0160
     14 C          63.9826   84.0552   12.6106 C.3     1  UNL1        0.0509
     15 H          62.9560   82.3768   16.0755 H       1  UNL1        0.1772
     16 O          63.8352   90.8936   13.2921 O.3     1  UNL1       -0.4754
     17 C          65.1569   91.5960   13.1928 C.3     1  UNL1        0.2068
     18 C          65.4706   92.4373   11.9912 C.3     1  UNL1        0.0646
     19 C          66.6797   93.3251   11.9923 C.3     1  UNL1        0.0759
     20 C          68.2735   92.4262    9.2902 C.3     1  UNL1        0.0173
     21 C          67.7024   93.7854    9.5659 C.3     1  UNL1        0.0576
     22 C          67.7635   94.9702    8.6479 C.3     1  UNL1        0.0174
     23 C          67.0687   96.1157    9.3226 C.3     1  UNL1        0.0187
     24 C          66.5781   95.6388   10.6575 C.3     1  UNL1        0.0721
     25 N          66.9697   94.1987   10.8079 N.3     1  UNL1       -0.2738
@<TRIPOS>BOND
     1    21    20    1
     2    21    22    1
     3    22    23    1
     4    23    24    1
     5    24    25    1
     6    25    19    1
     7    19    18    1
     8    18    17    1
     9    17    16    1
    10    16     1    1
    11     1     2   ar
    12     2     3   ar
    13     3     4   ar
    14     4     7    1
    15     7     8    2
    16     8     9    1
    17     9    10   am
    18    10    11    2
    19    10    12    1
    20    12    13    1
    21    14    13    1
    22     4     5   ar
    23     5     6   ar
    24    25    21    1
    25     6     1   ar
    26    14     7    1
    27    14    12    1
    28     9    15    1
@<TRIPOS>MOLECULE
*****
 25 28 0 0 0
SMALL
GASTEIGER

@<TRIPOS>ATOM
      1 C          63.4507   84.0837   11.4825 C.ar    1  UNL1        0.1386
      2 C          63.5931   84.0786    9.9893 C.ar    1  UNL1        0.0369
      3 C          62.7585   85.0027    9.1531 C.ar    1  UNL1        0.0043
      4 C          61.7813   85.9321    9.8102 C.ar    1  UNL1        0.0152
      5 C          61.6390   85.9372   11.3033 C.ar    1  UNL1        0.0043
      6 C          62.4736   85.0130   12.1395 C.ar    1  UNL1        0.0369
      7 C          60.9467   86.8562    8.9740 C.2     1  UNL1        0.0763
      8 N          60.1645   86.3169    7.8132 N.2     1  UNL1       -0.1836
      9 N          59.3299   87.2411    6.9770 N.am    1  UNL1       -0.2062
     10 C          59.2773   88.7046    7.3016 C.2     1  UNL1        0.2410
     11 O          58.4426   89.6287    6.4654 O.2     1  UNL1       -0.2734
     12 C          60.0594   89.2440    8.4624 C.3     1  UNL1        0.0841
     13 C          60.8415   89.7833    9.6231 C.3     1  UNL1        0.0160
     14 C          60.8941   88.3198    9.2986 C.3     1  UNL1        0.0509
     15 H          58.8165   86.8871    6.2152 H       1  UNL1        0.1772
     16 O          64.2854   83.1596   12.3187 O.3     1  UNL1       -0.4754
     17 C          64.2581   83.2708   13.8143 C.3     1  UNL1        0.2068
     18 C          64.7790   84.5078   14.4840 C.3     1  UNL1        0.0646
     19 C          64.0315   85.1073   15.6381 C.3     1  UNL1        0.0759
     20 C          62.5539   86.7234   18.0576 C.3     1  UNL1        0.0173
     21 C          63.1768   87.3372   16.8390 C.3     1  UNL1        0.0576
     22 C          63.2299   88.8016   16.5184 C.3     1  UNL1        0.0174
     23 C          63.9418   88.9638   15.2081 C.3     1  UNL1        0.0187
     24 C          64.3288   87.5996   14.7189 C.3     1  UNL1        0.0721
     25 N          63.8560   86.5943   15.7268 N.3     1  UNL1       -0.2738
@<TRIPOS>BOND
     1    21    20    1
     2    21    22    1
     3    22    23    1
     4    23    24    1
     5    24    25    1
     6    25    19    1
     7    19    18    1
     8    18    17    1
     9    17    16    1
    10    16     1    1
    11     1     2   ar
    12     2     3   ar
    13     3     4   ar
    14     4     7    1
    15     7     8    2
    16     8     9    1
    17     9    10   am
    18    10    11    2
    19    10    12    1
    20    12    13    1
    21    14    13    1
    22     4     5   ar
    23     5     6   ar
    24    25    21    1
    25     6     1   ar
    26    14     7    1
    27    14    12    1
    28     9    15    1
@<TRIPOS>MOLECULE
*****
 25 28 0 0 0
SMALL
GASTEIGER

@<TRIPOS>ATOM
      1 C          62.5249   89.5377   10.9168 C.ar    1  UNL1        0.1386
      2 C          62.9199   88.9828   12.2533 C.ar    1  UNL1        0.0369
      3 C          63.8921   89.7295   13.1178 C.ar    1  UNL1        0.0043
      4 C          64.4693   91.0311   12.6457 C.ar    1  UNL1        0.0152
      5 C          64.0743   91.5860   11.3093 C.ar    1  UNL1        0.0043
      6 C          63.1021   90.8393   10.4448 C.ar    1  UNL1        0.0369
      7 C          65.4415   91.7778   13.5102 C.2     1  UNL1        0.0763
      8 N          66.6773   92.3754   12.9056 N.2     1  UNL1       -0.1836
      9 N          67.6495   93.1221   13.7700 N.am    1  UNL1       -0.2062
     10 C          67.3859   93.2712   15.2391 C.2     1  UNL1        0.2410
     11 O          68.3581   94.0179   16.1035 O.2     1  UNL1       -0.2734
     12 C          66.1500   92.6736   15.8438 C.3     1  UNL1        0.0841
     13 C          64.9142   92.0760   16.4484 C.3     1  UNL1        0.0160
     14 C          65.1778   91.9269   14.9793 C.3     1  UNL1        0.0509
     15 H          68.4606   93.5144   13.3731 H       1  UNL1        0.1772
     16 O          61.5527   88.7910   10.0524 O.3     1  UNL1       -0.4754
     17 C          61.8942   87.4187    9.5523 C.3     1  UNL1        0.2068
     18 C          61.2934   86.2106   10.2077 C.3     1  UNL1        0.0646
     19 C          61.9614   85.5948   11.4012 C.3     1  UNL1        0.0759
     20 C          62.6335   83.3636   13.6859 C.3     1  UNL1        0.0173
     21 C          63.1560   83.3708   12.2800 C.3     1  UNL1        0.0576
     22 C          64.0793   82.3538   11.6772 C.3     1  UNL1        0.0174
     23 C          64.3409   82.7507   10.2546 C.3     1  UNL1        0.0187
     24 C          63.5794   84.0131    9.9780 C.3     1  UNL1        0.0721
     25 N          62.8471   84.3964   11.2298 N.3     1  UNL1       -0.2738
@<TRIPOS>BOND
     1    21    20    1
     2    21    22    1
     3    22    23    1
     4    23    24    1
     5    24    25    1
     6    25    19    1
     7    19    18    1
     8    18    17    1
     9    17    16    1
    10    16     1    1
    11     1     2   ar
    12     2     3   ar
    13     3     4   ar
    14     4     7    1
    15     7     8    2
    16     8     9    1
    17     9    10   am
    18    10    11    2
    19    10    12    1
    20    12    13    1
    21    14    13    1
    22     4     5   ar
    23     5     6   ar
    24    25    21    1
    25     6     1   ar
    26    14     7    1
    27    14    12    1
    28     9    15    1
@<TRIPOS>MOLECULE
*****
 25 28 0 0 0
SMALL
GASTEIGER

@<TRIPOS>ATOM
      1 C          61.9863   89.3903   10.5342 C.ar    1  UNL1        0.1386
      2 C          62.5822   90.6735   10.0357 C.ar    1  UNL1        0.0369
      3 C          63.5797   91.4137   10.8766 C.ar    1  UNL1        0.0043
      4 C          63.9812   90.8707   12.2160 C.ar    1  UNL1        0.0152
      5 C          63.3853   89.5877   12.7145 C.ar    1  UNL1        0.0043
      6 C          62.3878   88.8475   11.8736 C.ar    1  UNL1        0.0369
      7 C          64.9787   91.6109   13.0569 C.2     1  UNL1        0.0763
      8 N          65.3637   91.0797   14.4058 N.2     1  UNL1       -0.1836
      9 N          66.3612   91.8199   15.2467 N.am    1  UNL1       -0.2062
     10 C          66.9737   93.0913   14.7387 C.2     1  UNL1        0.2410
     11 O          67.9712   93.8315   15.5796 O.2     1  UNL1       -0.2734
     12 C          66.5888   93.6227   13.3897 C.3     1  UNL1        0.0841
     13 C          66.2039   94.1539   12.0408 C.3     1  UNL1        0.0160
     14 C          65.5913   92.8825   12.5488 C.3     1  UNL1        0.0509
     15 H          66.6138   91.4712   16.1321 H       1  UNL1        0.1772
     16 O          60.9888   88.6501    9.6934 O.3     1  UNL1       -0.4754
     17 C          61.3789   87.3664    9.0227 C.3     1  UNL1        0.2068
     18 C          61.3704   86.0824    9.7982 C.3     1  UNL1        0.0646
     19 C          62.6352   85.2909    9.9521 C.3     1  UNL1        0.0759
     20 C          64.1402   82.4175   10.3102 C.3     1  UNL1        0.0173
     21 C          63.6332   83.2914   11.4189 C.3     1  UNL1        0.0576
     22 C          63.7289   82.9980   12.8868 C.3     1  UNL1        0.0174
     23 C          63.0963   84.1375   13.6295 C.3     1  UNL1        0.0187
     24 C          62.6096   85.1350   12.6205 C.3     1  UNL1        0.0721
     25 N          62.9414   84.6122   11.2543 N.3     1  UNL1       -0.2738
@<TRIPOS>BOND
     1    21    20    1
     2    21    22    1
     3    22    23    1
     4    23    24    1
     5    24    25    1
     6    25    19    1
     7    19    18    1
     8    18    17    1
     9    17    16    1
    10    16     1    1
    11     1     2   ar
    12     2     3   ar
    13     3     4   ar
    14     4     7    1
    15     7     8    2
    16     8     9    1
    17     9    10   am
    18    10    11    2
    19    10    12    1
    20    12    13    1
    21    14    13    1
    22     4     5   ar
    23     5     6   ar
    24    25    21    1
    25     6     1   ar
    26    14     7    1
    27    14    12    1
    28     9    15    1
@<TRIPOS>MOLECULE
*****
 25 28 0 0 0
SMALL
GASTEIGER

@<TRIPOS>ATOM
      1 C          62.7618   90.7931   10.8798 C.ar    1  UNL1        0.1386
      2 C          62.8310   90.2443   12.2742 C.ar    1  UNL1        0.0369
      3 C          63.9681   90.6263   13.1749 C.ar    1  UNL1        0.0043
      4 C          65.0359   91.5570   12.6812 C.ar    1  UNL1        0.0152
      5 C          64.9666   92.1057   11.2869 C.ar    1  UNL1        0.0043
      6 C          63.8296   91.7237   10.3862 C.ar    1  UNL1        0.0369
      7 C          66.1729   91.9390   13.5819 C.2     1  UNL1        0.0763
      8 N          67.5681   92.0166   13.0367 N.2     1  UNL1       -0.1836
      9 N          68.7052   92.3985   13.9374 N.am    1  UNL1       -0.2062
     10 C          68.4470   92.7029   15.3833 C.2     1  UNL1        0.2410
     11 O          69.5840   93.0849   16.2840 O.2     1  UNL1       -0.2734
     12 C          67.0517   92.6253   15.9285 C.3     1  UNL1        0.0841
     13 C          65.6565   92.5477   16.4738 C.3     1  UNL1        0.0160
     14 C          65.9147   92.2434   15.0279 C.3     1  UNL1        0.0509
     15 H          69.6209   92.4495   13.5795 H       1  UNL1        0.1772
     16 O          61.6248   90.4111    9.9791 O.3     1  UNL1       -0.4754
     17 C          60.8277   89.1722   10.2617 C.3     1  UNL1        0.2068
     18 C          60.0475   88.5153    9.1618 C.3     1  UNL1        0.0646
     19 C          59.9189   87.0213    9.1226 C.3     1  UNL1        0.0759
     20 C          62.0280   85.9259   11.3589 C.3     1  UNL1        0.0173
     21 C          62.0951   85.6679    9.8828 C.3     1  UNL1        0.0576
     22 C          63.1433   84.8611    9.1754 C.3     1  UNL1        0.0174
     23 C          62.8217   84.8661    7.7103 C.3     1  UNL1        0.0187
     24 C          61.5747   85.6759    7.5122 C.3     1  UNL1        0.0721
     25 N          61.1256   86.1714    8.8548 N.3     1  UNL1       -0.2738
@<TRIPOS>BOND
     1    21    20    1
     2    21    22    1
     3    22    23    1
     4    23    24    1
     5    24    25    1
     6    25    19    1
     7    19    18    1
     8    18    17    1
     9    17    16    1
    10    16     1    1
    11     1     2   ar
    12     2     3   ar
    13     3     4   ar
    14     4     7    1
    15     7     8    2
    16     8     9    1
    17     9    10   am
    18    10    11    2
    19    10    12    1
    20    12    13    1
    21    14    13    1
    22     4     5   ar
    23     5     6   ar
    24    25    21    1
    25     6     1   ar
    26    14     7    1
    27    14    12    1
    28     9    15    1
@<TRIPOS>MOLECULE
*****
 25 28 0 0 0
SMALL
GASTEIGER

@<TRIPOS>ATOM
      1 C          63.6526   90.8666   12.4430 C.ar    1  UNL1        0.1386
      2 C          63.2741   91.2787   11.0512 C.ar    1  UNL1        0.0369
      3 C          62.6912   90.2727   10.1035 C.ar    1  UNL1        0.0043
      4 C          62.4868   88.8546   10.5476 C.ar    1  UNL1        0.0152
      5 C          62.8652   88.4425   11.9393 C.ar    1  UNL1        0.0043
      6 C          63.4481   89.4486   12.8870 C.ar    1  UNL1        0.0369
      7 C          61.9039   87.8486    9.5998 C.2     1  UNL1        0.0763
      8 N          62.5278   86.4907    9.4704 N.2     1  UNL1       -0.1836
      9 N          61.9449   85.4846    8.5227 N.am    1  UNL1       -0.2062
     10 C          60.7381   85.8365    7.7044 C.2     1  UNL1        0.2410
     11 O          60.1552   84.8305    6.7567 O.2     1  UNL1       -0.2734
     12 C          60.1140   87.1945    7.8338 C.3     1  UNL1        0.0841
     13 C          59.4901   88.5523    7.9632 C.3     1  UNL1        0.0160
     14 C          60.6969   88.2005    8.7815 C.3     1  UNL1        0.0509
     15 H          62.3545   84.5934    8.4378 H       1  UNL1        0.1772
     16 O          64.2355   91.8727   13.3907 O.3     1  UNL1       -0.4754
     17 C          65.2868   91.4542   14.3753 C.3     1  UNL1        0.2068
     18 C          66.6467   92.0858   14.3342 C.3     1  UNL1        0.0646
     19 C          66.8970   93.2704   13.4488 C.3     1  UNL1        0.0759
     20 C          65.8579   95.2071   11.0365 C.3     1  UNL1        0.0173
     21 C          66.6778   93.9614   10.8759 C.3     1  UNL1        0.0576
     22 C          67.1642   93.3871    9.5783 C.3     1  UNL1        0.0174
     23 C          67.9424   92.1420    9.8851 C.3     1  UNL1        0.0187
     24 C          67.9370   91.9468   11.3724 C.3     1  UNL1        0.0721
     25 N          67.1555   93.0712   11.9847 N.3     1  UNL1       -0.2738
@<TRIPOS>BOND
     1    21    20    1
     2    21    22    1
     3    22    23    1
     4    23    24    1
     5    24    25    1
     6    25    19    1
     7    19    18    1
     8    18    17    1
     9    17    16    1
    10    16     1    1
    11     1     2   ar
    12     2     3   ar
    13     3     4   ar
    14     4     7    1
    15     7     8    2
    16     8     9    1
    17     9    10   am
    18    10    11    2
    19    10    12    1
    20    12    13    1
    21    14    13    1
    22     4     5   ar
    23     5     6   ar
    24    25    21    1
    25     6     1   ar
    26    14     7    1
    27    14    12    1
    28     9    15    1
@<TRIPOS>MOLECULE
*****
 25 28 0 0 0
SMALL
GASTEIGER

@<TRIPOS>ATOM
      1 C          62.7315   89.4565   12.5757 C.ar    1  UNL1        0.1386
      2 C          63.4147   88.9487   13.8109 C.ar    1  UNL1        0.0369
      3 C          64.5368   89.7332   14.4236 C.ar    1  UNL1        0.0043
      4 C          64.9757   91.0255   13.8012 C.ar    1  UNL1        0.0152
      5 C          64.2925   91.5333   12.5661 C.ar    1  UNL1        0.0043
      6 C          63.1704   90.7488   11.9534 C.ar    1  UNL1        0.0369
      7 C          66.0978   91.8101   14.4139 C.2     1  UNL1        0.0763
      8 N          65.8507   92.6421   15.6373 N.2     1  UNL1       -0.1836
      9 N          66.9728   93.4266   16.2500 N.am    1  UNL1       -0.2062
     10 C          68.3420   93.3791   15.6394 C.2     1  UNL1        0.2410
     11 O          69.4641   94.1636   16.2521 O.2     1  UNL1       -0.2734
     12 C          68.5892   92.5470   14.4160 C.3     1  UNL1        0.0841
     13 C          68.8363   91.7150   13.1926 C.3     1  UNL1        0.0160
     14 C          67.4671   91.7625   13.8032 C.3     1  UNL1        0.0509
     15 H          66.8105   93.9727   17.0529 H       1  UNL1        0.1772
     16 O          61.6094   88.6720   11.9630 O.3     1  UNL1       -0.4754
     17 C          60.2945   89.3373   11.6832 C.3     1  UNL1        0.2068
     18 C          60.1152   90.1490   10.4346 C.3     1  UNL1        0.0646
     19 C          60.6788   89.6586    9.1339 C.3     1  UNL1        0.0759
     20 C          62.3836   86.8884    9.3975 C.3     1  UNL1        0.0173
     21 C          61.0551   87.0448    8.7190 C.3     1  UNL1        0.0576
     22 C          60.2768   85.9555    8.0425 C.3     1  UNL1        0.0174
     23 C          59.0122   86.5555    7.5033 C.3     1  UNL1        0.0187
     24 C          59.0089   88.0157    7.8465 C.3     1  UNL1        0.0721
     25 N          60.2714   88.3182    8.5978 N.3     1  UNL1       -0.2738
@<TRIPOS>BOND
     1    21    20    1
     2    21    22    1
     3    22    23    1
     4    23    24    1
     5    24    25    1
     6    25    19    1
     7    19    18    1
     8    18    17    1
     9    17    16    1
    10    16     1    1
    11     1     2   ar
    12     2     3   ar
    13     3     4   ar
    14     4     7    1
    15     7     8    2
    16     8     9    1
    17     9    10   am
    18    10    11    2
    19    10    12    1
    20    12    13    1
    21    14    13    1
    22     4     5   ar
    23     5     6   ar
    24    25    21    1
    25     6     1   ar
    26    14     7    1
    27    14    12    1
    28     9    15    1
