@<TRIPOS>MOLECULE
*****
 27 30 0 0 0
SMALL
GASTEIGER

@<TRIPOS>ATOM
      1 C          64.0530   88.4667   14.7304 C.ar    1  UNL1        0.2035
      2 N          64.1351   87.1278   14.0590 N.ar    1  UNL1       -0.2133
      3 C          63.6982   85.8937   14.7911 C.ar    1  UNL1        0.1065
      4 C          63.1792   85.9983   16.1946 C.ar    1  UNL1        0.0815
      5 C          63.0972   87.3372   16.8660 C.ar    1  UNL1        0.2646
      6 O          62.5783   87.4419   18.2695 O.2     1  UNL1       -0.2668
      7 N          63.5341   88.5714   16.1339 N.ar    1  UNL1       -0.2667
      8 C          63.4521   89.9102   16.8053 C.3     1  UNL1        0.1363
      9 C          62.6038   89.3316   12.2501 C.3     1  UNL1        0.0233
     10 C          63.7654   90.1333   12.7582 C.3     1  UNL1        0.0953
     11 C          64.2023   91.3674   12.0261 C.3     1  UNL1        0.1119
     12 N          65.3638   92.1691   12.5342 N.pl3   1  UNL1       -0.2898
     13 C          66.0884   91.7367   13.7742 C.3     1  UNL1        0.1137
     14 C          65.6515   90.5026   14.5063 C.3     1  UNL1        0.1150
     15 N          64.4900   89.7009   13.9983 N.pl3   1  UNL1       -0.2777
     16 C          65.8007   93.4033   11.8020 C.ar    1  UNL1        0.1318
     17 C          66.0647   93.3461   10.3265 C.ar    1  UNL1        0.0343
     18 C          66.5016   94.5802    9.5944 C.ar    1  UNL1        0.0045
     19 C          66.6746   95.8716   10.3377 C.ar    1  UNL1        0.0208
     20 C          66.4106   95.9288   11.8132 C.ar    1  UNL1        0.1003
     21 N          65.9737   94.6946   12.5454 N.ar    1  UNL1       -0.2292
     22 C          63.7802   84.5548   14.1197 C.ar    1  UNL1        0.1024
     23 C          63.8744   84.4698   12.6251 C.ar    1  UNL1        0.0414
     24 C          63.9564   83.1310   11.9537 C.ar    1  UNL1        0.1023
     25 N          63.9443   81.8771   12.7769 N.ar    1  UNL1       -0.2224
     26 C          63.8501   81.9621   14.2716 C.ar    1  UNL1        0.1989
     27 N          63.7681   83.3010   14.9430 N.ar    1  UNL1       -0.2224
@<TRIPOS>BOND
     1    10     9    1
     2    10    11    1
     3    11    12    1
     4    12    16    1
     5    16    17   ar
     6    17    18   ar
     7    18    19   ar
     8    19    20   ar
     9    20    21   ar
    10    12    13    1
    11    13    14    1
    12    14    15    1
    13    15     1    1
    14     1     2   ar
    15     2     3   ar
    16     3    22    1
    17    22    23   ar
    18    23    24   ar
    19    24    25   ar
    20    25    26   ar
    21    26    27   ar
    22     3     4   ar
    23     4     5   ar
    24     5     6    2
    25     5     7   ar
    26     7     8    1
    27    15    10    1
    28     7     1   ar
    29    21    16   ar
    30    27    22   ar
@<TRIPOS>MOLECULE
*****
 27 30 0 0 0
SMALL
GASTEIGER

@<TRIPOS>ATOM
      1 C          64.3454   89.6088   14.0612 C.ar    1  UNL1        0.2035
      2 N          65.0565   90.4256   13.0233 N.ar    1  UNL1       -0.2133
      3 C          65.3658   91.8693   13.2875 C.ar    1  UNL1        0.1065
      4 C          64.9640   92.4964   14.5896 C.ar    1  UNL1        0.0815
      5 C          64.2529   91.6796   15.6275 C.ar    1  UNL1        0.2646
      6 O          63.8511   92.3065   16.9295 O.2     1  UNL1       -0.2668
      7 N          63.9436   90.2357   15.3632 N.ar    1  UNL1       -0.2667
      8 C          63.2324   89.4190   16.4011 C.3     1  UNL1        0.1363
      9 C          62.7099   88.8389   11.6669 C.3     1  UNL1        0.0233
     10 C          63.2183   87.7800   12.5998 C.3     1  UNL1        0.0953
     11 C          62.9091   86.3363   12.3356 C.3     1  UNL1        0.1119
     12 N          63.4175   85.2774   13.2685 N.pl3   1  UNL1       -0.2898
     13 C          64.2353   85.6623   14.4656 C.3     1  UNL1        0.1137
     14 C          64.5445   87.1061   14.7298 C.3     1  UNL1        0.1150
     15 N          64.0361   88.1649   13.7969 N.pl3   1  UNL1       -0.2777
     16 C          63.1082   83.8336   13.0042 C.ar    1  UNL1        0.1318
     17 C          63.4227   83.2319   11.6667 C.ar    1  UNL1        0.0343
     18 C          63.1134   81.7881   11.4024 C.ar    1  UNL1        0.0045
     19 C          62.4897   80.9460   12.4757 C.ar    1  UNL1        0.0208
     20 C          62.1752   81.5477   13.8132 C.ar    1  UNL1        0.1003
     21 N          62.4845   82.9916   14.0775 N.ar    1  UNL1       -0.2292
     22 C          66.0770   92.6861   12.2496 C.ar    1  UNL1        0.1024
     23 C          67.0036   92.0199   11.2763 C.ar    1  UNL1        0.0414
     24 C          67.7147   92.8367   10.2385 C.ar    1  UNL1        0.1023
     25 N          67.4992   94.3197   10.1739 N.ar    1  UNL1       -0.2224
     26 C          66.5725   94.9860   11.1473 C.ar    1  UNL1        0.1989
     27 N          65.8614   94.1692   12.1851 N.ar    1  UNL1       -0.2224
@<TRIPOS>BOND
     1    10     9    1
     2    10    11    1
     3    11    12    1
     4    12    16    1
     5    16    17   ar
     6    17    18   ar
     7    18    19   ar
     8    19    20   ar
     9    20    21   ar
    10    12    13    1
    11    13    14    1
    12    14    15    1
    13    15     1    1
    14     1     2   ar
    15     2     3   ar
    16     3    22    1
    17    22    23   ar
    18    23    24   ar
    19    24    25   ar
    20    25    26   ar
    21    26    27   ar
    22     3     4   ar
    23     4     5   ar
    24     5     6    2
    25     5     7   ar
    26     7     8    1
    27    15    10    1
    28     7     1   ar
    29    21    16   ar
    30    27    22   ar
@<TRIPOS>MOLECULE
*****
 27 30 0 0 0
SMALL
GASTEIGER

@<TRIPOS>ATOM
      1 C          63.4906   88.5527   12.4990 C.ar    1  UNL1        0.2035
      2 N          64.2568   89.2777   13.5654 N.ar    1  UNL1       -0.2133
      3 C          64.4933   90.7542   13.4467 C.ar    1  UNL1        0.1065
      4 C          63.9636   91.5057   12.2614 C.ar    1  UNL1        0.0815
      5 C          63.1974   90.7806   11.1949 C.ar    1  UNL1        0.2646
      6 O          62.6678   91.5320   10.0097 O.2     1  UNL1       -0.2668
      7 N          62.9609   89.3041   11.3138 N.ar    1  UNL1       -0.2667
      8 C          62.1948   88.5791   10.2473 C.3     1  UNL1        0.1363
      9 C          64.5491   87.0500   14.8700 C.3     1  UNL1        0.0233
     10 C          63.7833   86.3249   13.8033 C.3     1  UNL1        0.0953
     11 C          63.5468   84.8484   13.9221 C.3     1  UNL1        0.1119
     12 N          62.7811   84.1233   12.8554 N.pl3   1  UNL1       -0.2898
     13 C          62.2519   84.8746   11.6699 C.3     1  UNL1        0.1137
     14 C          62.4884   86.3511   11.5511 C.3     1  UNL1        0.1150
     15 N          63.2541   87.0762   12.6178 N.pl3   1  UNL1       -0.2777
     16 C          62.5446   82.6468   12.9742 C.ar    1  UNL1        0.1318
     17 C          63.0809   81.7148   11.9284 C.ar    1  UNL1        0.0343
     18 C          62.8444   80.2384   12.0471 C.ar    1  UNL1        0.0045
     19 C          62.0716   79.6938   13.2118 C.ar    1  UNL1        0.0208
     20 C          61.5353   80.6258   14.2576 C.ar    1  UNL1        0.1003
     21 N          61.7718   82.1024   14.1388 N.ar    1  UNL1       -0.2292
     22 C          65.2595   91.4792   14.5131 C.ar    1  UNL1        0.1024
     23 C          66.7369   91.6906   14.3628 C.ar    1  UNL1        0.0414
     24 C          67.5031   92.4156   15.4293 C.ar    1  UNL1        0.1023
     25 N          66.7919   92.9292   16.6460 N.ar    1  UNL1       -0.2224
     26 C          65.3144   92.7178   16.7963 C.ar    1  UNL1        0.1989
     27 N          64.5482   91.9928   15.7298 N.ar    1  UNL1       -0.2224
@<TRIPOS>BOND
     1    10     9    1
     2    10    11    1
     3    11    12    1
     4    12    16    1
     5    16    17   ar
     6    17    18   ar
     7    18    19   ar
     8    19    20   ar
     9    20    21   ar
    10    12    13    1
    11    13    14    1
    12    14    15    1
    13    15     1    1
    14     1     2   ar
    15     2     3   ar
    16     3    22    1
    17    22    23   ar
    18    23    24   ar
    19    24    25   ar
    20    25    26   ar
    21    26    27   ar
    22     3     4   ar
    23     4     5   ar
    24     5     6    2
    25     5     7   ar
    26     7     8    1
    27    15    10    1
    28     7     1   ar
    29    21    16   ar
    30    27    22   ar
@<TRIPOS>MOLECULE
*****
 27 30 0 0 0
SMALL
GASTEIGER

@<TRIPOS>ATOM
      1 C          60.8726   88.9339    9.1823 C.ar    1  UNL1        0.2035
      2 N          60.2153   89.8706    8.2125 N.ar    1  UNL1       -0.2133
      3 C          59.4407   89.3245    7.0499 C.ar    1  UNL1        0.1065
      4 C          59.3233   87.8415    6.8571 C.ar    1  UNL1        0.0815
      5 C          59.9805   86.9048    7.8268 C.ar    1  UNL1        0.2646
      6 O          59.8632   85.4219    7.6340 O.2     1  UNL1       -0.2668
      7 N          60.7552   87.4510    8.9895 N.ar    1  UNL1       -0.2667
      8 C          61.4125   86.5142    9.9593 C.3     1  UNL1        0.1363
      9 C          59.6603   88.9316   11.9265 C.3     1  UNL1        0.0233
     10 C          61.0411   89.4789   11.7170 C.3     1  UNL1        0.0953
     11 C          61.8158   90.0251   12.8795 C.3     1  UNL1        0.1119
     12 N          63.1965   90.5724   12.6700 N.pl3   1  UNL1       -0.2898
     13 C          63.8027   90.5735   11.2979 C.3     1  UNL1        0.1137
     14 C          63.0280   90.0274   10.1354 C.3     1  UNL1        0.1150
     15 N          61.6472   89.4801   10.3449 N.pl3   1  UNL1       -0.2777
     16 C          63.9712   91.1186   13.8326 C.ar    1  UNL1        0.1318
     17 C          65.3210   91.7344   13.6116 C.ar    1  UNL1        0.0343
     18 C          66.0957   92.2806   14.7741 C.ar    1  UNL1        0.0045
     19 C          65.5205   92.2110   16.1578 C.ar    1  UNL1        0.0208
     20 C          64.1707   91.5952   16.3788 C.ar    1  UNL1        0.1003
     21 N          63.3960   91.0490   15.2162 N.ar    1  UNL1       -0.2292
     22 C          58.7834   90.2613    6.0801 C.ar    1  UNL1        0.1024
     23 C          59.6222   91.1456    5.2058 C.ar    1  UNL1        0.0414
     24 C          58.9649   92.0823    4.2360 C.ar    1  UNL1        0.1023
     25 N          57.4689   92.1348    4.1405 N.ar    1  UNL1       -0.2224
     26 C          56.6300   91.2504    5.0149 C.ar    1  UNL1        0.1989
     27 N          57.2873   90.3137    5.9847 N.ar    1  UNL1       -0.2224
@<TRIPOS>BOND
     1    10     9    1
     2    10    11    1
     3    11    12    1
     4    12    16    1
     5    16    17   ar
     6    17    18   ar
     7    18    19   ar
     8    19    20   ar
     9    20    21   ar
    10    12    13    1
    11    13    14    1
    12    14    15    1
    13    15     1    1
    14     1     2   ar
    15     2     3   ar
    16     3    22    1
    17    22    23   ar
    18    23    24   ar
    19    24    25   ar
    20    25    26   ar
    21    26    27   ar
    22     3     4   ar
    23     4     5   ar
    24     5     6    2
    25     5     7   ar
    26     7     8    1
    27    15    10    1
    28     7     1   ar
    29    21    16   ar
    30    27    22   ar
@<TRIPOS>MOLECULE
*****
 27 30 0 0 0
SMALL
GASTEIGER

@<TRIPOS>ATOM
      1 C          62.3047   88.2277   11.5950 C.ar    1  UNL1        0.2035
      2 N          63.5037   89.0595   11.9421 N.ar    1  UNL1       -0.2133
      3 C          63.4142   90.5563   11.9056 C.ar    1  UNL1        0.1065
      4 C          62.1255   91.2215   11.5220 C.ar    1  UNL1        0.0815
      5 C          60.9265   90.3897   11.1750 C.ar    1  UNL1        0.2646
      6 O          59.6379   91.0548   10.7914 O.2     1  UNL1       -0.2668
      7 N          61.0161   88.8928   11.2114 N.ar    1  UNL1       -0.2667
      8 C          59.8171   88.0610   10.8644 C.3     1  UNL1        0.1363
      9 C          62.3401   86.6642    9.0349 C.3     1  UNL1        0.0233
     10 C          62.4120   85.9491   10.3515 C.3     1  UNL1        0.0953
     11 C          62.5016   84.4522   10.3880 C.3     1  UNL1        0.1119
     12 N          62.5735   83.7371   11.7046 N.pl3   1  UNL1       -0.2898
     13 C          62.5558   84.5188   12.9847 C.3     1  UNL1        0.1137
     14 C          62.4662   86.0156   12.9481 C.3     1  UNL1        0.1150
     15 N          62.3943   86.7308   11.6315 N.pl3   1  UNL1       -0.2777
     16 C          62.6631   82.2401   11.7411 C.ar    1  UNL1        0.1318
     17 C          63.0738   81.4833   10.5129 C.ar    1  UNL1        0.0343
     18 C          63.1634   79.9864   10.5494 C.ar    1  UNL1        0.0045
     19 C          62.8424   79.2464   11.8140 C.ar    1  UNL1        0.0208
     20 C          62.4317   80.0033   13.0422 C.ar    1  UNL1        0.1003
     21 N          62.3420   81.5002   13.0057 N.ar    1  UNL1       -0.2292
     22 C          64.6132   91.3881   12.2527 C.ar    1  UNL1        0.1024
     23 C          65.1672   92.3593   11.2528 C.ar    1  UNL1        0.0414
     24 C          66.3662   93.1910   11.5999 C.ar    1  UNL1        0.1023
     25 N          67.0112   93.0517   12.9469 N.ar    1  UNL1       -0.2224
     26 C          66.4572   92.0805   13.9469 C.ar    1  UNL1        0.1989
     27 N          65.2582   91.2487   13.5998 N.ar    1  UNL1       -0.2224
@<TRIPOS>BOND
     1    10     9    1
     2    10    11    1
     3    11    12    1
     4    12    16    1
     5    16    17   ar
     6    17    18   ar
     7    18    19   ar
     8    19    20   ar
     9    20    21   ar
    10    12    13    1
    11    13    14    1
    12    14    15    1
    13    15     1    1
    14     1     2   ar
    15     2     3   ar
    16     3    22    1
    17    22    23   ar
    18    23    24   ar
    19    24    25   ar
    20    25    26   ar
    21    26    27   ar
    22     3     4   ar
    23     4     5   ar
    24     5     6    2
    25     5     7   ar
    26     7     8    1
    27    15    10    1
    28     7     1   ar
    29    21    16   ar
    30    27    22   ar
@<TRIPOS>MOLECULE
*****
 27 30 0 0 0
SMALL
GASTEIGER

@<TRIPOS>ATOM
      1 C          59.7942   94.2924   -2.7680 C.ar    1  UNL1        0.2035
      2 N          60.3182   93.9549   -1.4036 N.ar    1  UNL1       -0.2133
      3 C          61.7627   93.5934   -1.2233 C.ar    1  UNL1        0.1065
      4 C          62.6834   93.5695   -2.4074 C.ar    1  UNL1        0.0815
      5 C          62.1593   93.9070   -3.7717 C.ar    1  UNL1        0.2646
      6 O          63.0799   93.8830   -4.9558 O.2     1  UNL1       -0.2668
      7 N          60.7147   94.2684   -3.9520 N.ar    1  UNL1       -0.2667
      8 C          60.1907   94.6060   -5.3164 C.3     1  UNL1        0.1363
      9 C          57.7882   92.1653   -3.4403 C.3     1  UNL1        0.0233
     10 C          57.3466   93.5904   -3.2844 C.3     1  UNL1        0.0953
     11 C          55.9021   93.9519   -3.4647 C.3     1  UNL1        0.1119
     12 N          55.4604   95.3769   -3.3088 N.pl3   1  UNL1       -0.2898
     13 C          56.4633   96.4404   -2.9726 C.3     1  UNL1        0.1137
     14 C          57.9079   96.0789   -2.7923 C.3     1  UNL1        0.1150
     15 N          58.3495   94.6539   -2.9482 N.pl3   1  UNL1       -0.2777
     16 C          54.0158   95.7383   -3.4890 C.ar    1  UNL1        0.1318
     17 C          53.0882   95.7313   -2.3103 C.ar    1  UNL1        0.0343
     18 C          51.6436   96.0928   -2.4905 C.ar    1  UNL1        0.0045
     19 C          51.1266   96.4612   -3.8495 C.ar    1  UNL1        0.0208
     20 C          52.0542   96.4682   -5.0283 C.ar    1  UNL1        0.1003
     21 N          53.4988   96.1068   -4.8480 N.ar    1  UNL1       -0.2292
     22 C          62.2868   93.2559    0.1411 C.ar    1  UNL1        0.1024
     23 C          61.3637   92.6935    1.1811 C.ar    1  UNL1        0.0414
     24 C          61.8877   92.3560    2.5454 C.ar    1  UNL1        0.1023
     25 N          63.3348   92.5809    2.8698 N.ar    1  UNL1       -0.2224
     26 C          64.2580   93.1433    1.8298 C.ar    1  UNL1        0.1989
     27 N          63.7340   93.4808    0.4654 N.ar    1  UNL1       -0.2224
@<TRIPOS>BOND
     1    10     9    1
     2    10    11    1
     3    11    12    1
     4    12    16    1
     5    16    17   ar
     6    17    18   ar
     7    18    19   ar
     8    19    20   ar
     9    20    21   ar
    10    12    13    1
    11    13    14    1
    12    14    15    1
    13    15     1    1
    14     1     2   ar
    15     2     3   ar
    16     3    22    1
    17    22    23   ar
    18    23    24   ar
    19    24    25   ar
    20    25    26   ar
    21    26    27   ar
    22     3     4   ar
    23     4     5   ar
    24     5     6    2
    25     5     7   ar
    26     7     8    1
    27    15    10    1
    28     7     1   ar
    29    21    16   ar
    30    27    22   ar
@<TRIPOS>MOLECULE
*****
 27 30 0 0 0
SMALL
GASTEIGER

@<TRIPOS>ATOM
      1 C          72.1844   74.8092   13.7141 C.ar    1  UNL1        0.2035
      2 N          71.4746   73.5934   13.1963 N.ar    1  UNL1       -0.2133
      3 C          71.3416   72.3766   14.0631 C.ar    1  UNL1        0.1065
      4 C          71.9182   72.3754   15.4479 C.ar    1  UNL1        0.0815
      5 C          72.6280   73.5912   15.9657 C.ar    1  UNL1        0.2646
      6 O          73.2046   73.5901   17.3504 O.2     1  UNL1       -0.2668
      7 N          72.7610   74.8081   15.0988 N.ar    1  UNL1       -0.2667
      8 C          73.4708   76.0239   15.6166 C.3     1  UNL1        0.1363
      9 C          70.0861   76.9515   13.8035 C.3     1  UNL1        0.0233
     10 C          71.2683   77.0972   12.8919 C.3     1  UNL1        0.0953
     11 C          71.4014   78.3140   12.0250 C.3     1  UNL1        0.1119
     12 N          72.5836   78.4598   11.1133 N.pl3   1  UNL1       -0.2898
     13 C          73.6328   77.3887   11.0686 C.3     1  UNL1        0.1137
     14 C          73.4997   76.1719   11.9355 C.3     1  UNL1        0.1150
     15 N          72.3174   76.0261   12.8472 N.pl3   1  UNL1       -0.2777
     16 C          72.7167   79.6767   10.2464 C.ar    1  UNL1        0.1318
     17 C          73.2401   79.5467    8.8467 C.ar    1  UNL1        0.0343
     18 C          73.3732   80.7636    7.9798 C.ar    1  UNL1        0.0045
     19 C          72.9828   82.1104    8.5125 C.ar    1  UNL1        0.0208
     20 C          72.4594   82.2403    9.9122 C.ar    1  UNL1        0.1003
     21 N          72.3263   81.0234   10.7791 N.ar    1  UNL1       -0.2292
     22 C          70.6318   71.1608   13.5453 C.ar    1  UNL1        0.1024
     23 C          70.9992   69.8012   14.0614 C.ar    1  UNL1        0.0414
     24 C          70.2895   68.5854   13.5436 C.ar    1  UNL1        0.1023
     25 N          69.2124   68.7292   12.5096 N.ar    1  UNL1       -0.2224
     26 C          68.8449   70.0889   11.9934 C.ar    1  UNL1        0.1989
     27 N          69.5547   71.3047   12.5113 N.ar    1  UNL1       -0.2224
@<TRIPOS>BOND
     1    10     9    1
     2    10    11    1
     3    11    12    1
     4    12    16    1
     5    16    17   ar
     6    17    18   ar
     7    18    19   ar
     8    19    20   ar
     9    20    21   ar
    10    12    13    1
    11    13    14    1
    12    14    15    1
    13    15     1    1
    14     1     2   ar
    15     2     3   ar
    16     3    22    1
    17    22    23   ar
    18    23    24   ar
    19    24    25   ar
    20    25    26   ar
    21    26    27   ar
    22     3     4   ar
    23     4     5   ar
    24     5     6    2
    25     5     7   ar
    26     7     8    1
    27    15    10    1
    28     7     1   ar
    29    21    16   ar
    30    27    22   ar
@<TRIPOS>MOLECULE
*****
 27 30 0 0 0
SMALL
GASTEIGER

@<TRIPOS>ATOM
      1 C          62.9066   88.3162   12.1767 C.ar    1  UNL1        0.2035
      2 N          63.2222   86.8501   12.2082 N.ar    1  UNL1       -0.2133
      3 C          62.2743   85.8654   11.5904 C.ar    1  UNL1        0.1065
      4 C          61.0106   86.3467   10.9411 C.ar    1  UNL1        0.0815
      5 C          60.6950   87.8128   10.9096 C.ar    1  UNL1        0.2646
      6 O          59.4314   88.2941   10.2603 O.2     1  UNL1       -0.2668
      7 N          61.6430   88.7975   11.5274 N.ar    1  UNL1       -0.2667
      8 C          61.3274   90.2636   11.4959 C.3     1  UNL1        0.1363
      9 C          64.1508   87.7306   14.8430 C.3     1  UNL1        0.0233
     10 C          64.4767   89.0081   14.1276 C.3     1  UNL1        0.0953
     11 C          65.4247   89.9928   14.7453 C.3     1  UNL1        0.1119
     12 N          65.7506   91.2703   14.0300 N.pl3   1  UNL1       -0.2898
     13 C          65.1285   91.5631   12.6969 C.3     1  UNL1        0.1137
     14 C          64.1805   90.5784   12.0791 C.3     1  UNL1        0.1150
     15 N          63.8546   89.3009   12.7945 N.pl3   1  UNL1       -0.2777
     16 C          66.6986   92.2551   14.6478 C.ar    1  UNL1        0.1318
     17 C          67.7546   91.7820   15.6023 C.ar    1  UNL1        0.0343
     18 C          68.7026   92.7667   16.2201 C.ar    1  UNL1        0.0045
     19 C          68.5946   94.2244   15.8834 C.ar    1  UNL1        0.0208
     20 C          67.5386   94.6975   14.9289 C.ar    1  UNL1        0.1003
     21 N          66.5906   93.7128   14.3111 N.ar    1  UNL1       -0.2292
     22 C          62.5899   84.3993   11.6219 C.ar    1  UNL1        0.1024
     23 C          63.2427   83.7471   10.4394 C.ar    1  UNL1        0.0414
     24 C          63.5584   82.2810   10.4709 C.ar    1  UNL1        0.1023
     25 N          63.2212   81.4671   11.6850 N.ar    1  UNL1       -0.2224
     26 C          62.5684   82.1194   12.8676 C.ar    1  UNL1        0.1989
     27 N          62.2527   83.5854   12.8361 N.ar    1  UNL1       -0.2224
@<TRIPOS>BOND
     1    10     9    1
     2    10    11    1
     3    11    12    1
     4    12    16    1
     5    16    17   ar
     6    17    18   ar
     7    18    19   ar
     8    19    20   ar
     9    20    21   ar
    10    12    13    1
    11    13    14    1
    12    14    15    1
    13    15     1    1
    14     1     2   ar
    15     2     3   ar
    16     3    22    1
    17    22    23   ar
    18    23    24   ar
    19    24    25   ar
    20    25    26   ar
    21    26    27   ar
    22     3     4   ar
    23     4     5   ar
    24     5     6    2
    25     5     7   ar
    26     7     8    1
    27    15    10    1
    28     7     1   ar
    29    21    16   ar
    30    27    22   ar
@<TRIPOS>MOLECULE
*****
 27 30 0 0 0
SMALL
GASTEIGER

@<TRIPOS>ATOM
      1 C          63.5437   86.6350   14.3586 C.ar    1  UNL1        0.2035
      2 N          63.9457   87.8259   13.5400 N.ar    1  UNL1       -0.2133
      3 C          64.0796   89.1715   14.1891 C.ar    1  UNL1        0.1065
      4 C          63.8113   89.3262   15.6569 C.ar    1  UNL1        0.0815
      5 C          63.4093   88.1353   16.4754 C.ar    1  UNL1        0.2646
      6 O          63.1411   88.2900   17.9431 O.2     1  UNL1       -0.2668
      7 N          63.2754   86.7896   15.8262 N.ar    1  UNL1       -0.2667
      8 C          62.8734   85.5987   16.6448 C.3     1  UNL1        0.1363
      9 C          62.0788   86.3648   11.7545 C.3     1  UNL1        0.0233
     10 C          62.6774   85.1543   12.4073 C.3     1  UNL1        0.0953
     11 C          62.5436   83.8087   11.7582 C.3     1  UNL1        0.1119
     12 N          63.1422   82.5981   12.4111 N.pl3   1  UNL1       -0.2898
     13 C          63.8746   82.7332   13.7131 C.3     1  UNL1        0.1137
     14 C          64.0084   84.0788   14.3622 C.3     1  UNL1        0.1150
     15 N          63.4098   85.2893   13.7094 N.pl3   1  UNL1       -0.2777
     16 C          63.0084   81.2525   11.7619 C.ar    1  UNL1        0.1318
     17 C          63.1989   81.1121   10.2807 C.ar    1  UNL1        0.0343
     18 C          63.0650   79.7666    9.6315 C.ar    1  UNL1        0.0045
     19 C          62.7407   78.5613   10.4635 C.ar    1  UNL1        0.0208
     20 C          62.5503   78.7016   11.9447 C.ar    1  UNL1        0.1003
     21 N          62.6841   80.0473   12.5939 N.ar    1  UNL1       -0.2292
     22 C          64.4816   90.3625   13.3706 C.ar    1  UNL1        0.1024
     23 C          65.5538   91.2864   13.8672 C.ar    1  UNL1        0.0414
     24 C          65.9559   92.4774   13.0487 C.ar    1  UNL1        0.1023
     25 N          65.2858   92.7443   11.7335 N.ar    1  UNL1       -0.2224
     26 C          64.2135   91.8203   11.2368 C.ar    1  UNL1        0.1989
     27 N          63.8115   90.6294   12.0554 N.ar    1  UNL1       -0.2224
@<TRIPOS>BOND
     1    10     9    1
     2    10    11    1
     3    11    12    1
     4    12    16    1
     5    16    17   ar
     6    17    18   ar
     7    18    19   ar
     8    19    20   ar
     9    20    21   ar
    10    12    13    1
    11    13    14    1
    12    14    15    1
    13    15     1    1
    14     1     2   ar
    15     2     3   ar
    16     3    22    1
    17    22    23   ar
    18    23    24   ar
    19    24    25   ar
    20    25    26   ar
    21    26    27   ar
    22     3     4   ar
    23     4     5   ar
    24     5     6    2
    25     5     7   ar
    26     7     8    1
    27    15    10    1
    28     7     1   ar
    29    21    16   ar
    30    27    22   ar
