@<TRIPOS>MOLECULE
*****
 44 46 0 0 0
SMALL
GASTEIGER

@<TRIPOS>ATOM
      1 C          60.7818   88.3357   10.3532 C.3     1  UNL1        0.1054
      2 C          59.8159   88.1633    9.2187 C.3     1  UNL1        0.1689
      3 S          59.8831   86.9380    8.3561 S.O2    1  UNL1       -0.0085
      4 O          59.5515   85.9605    7.2678 O.2     1  UNL1       -0.1729
      5 O          58.7348   87.6514    7.7062 O.2     1  UNL1       -0.1729
      6 C          60.9163   85.8851    8.6280 C.3     1  UNL1        0.1536
      7 C          61.8822   86.0575    9.7626 C.3     1  UNL1        0.0562
      8 C          61.8150   87.2828   10.6251 C.3     1  UNL1        0.1285
      9 O          62.7810   87.4552   11.7597 O.3     1  UNL1       -0.3830
     10 H          62.6018   88.2943   12.2122 H       1  UNL1        0.2104
     11 N          60.7146   89.5610   11.2159 N.3     1  UNL1       -0.2902
     12 H          59.9038   90.0960   10.9049 H       1  UNL1        0.1237
     13 C          61.8723   90.5140   11.2566 C.3     1  UNL1        0.1152
     14 C          65.0142   91.2790   13.5574 C.ar    1  UNL1       -0.0200
     15 C          64.6291   90.5546   14.8131 C.ar    1  UNL1        0.0164
     16 C          63.3251   89.8166   14.8833 C.ar    1  UNL1        0.0982
     17 N          62.4062   89.8030   13.6979 N.ar    1  UNL1       -0.2468
     18 C          62.7912   90.5275   12.4422 C.ar    1  UNL1        0.0746
     19 C          64.0952   91.2655   12.3720 C.ar    1  UNL1        0.0118
     20 C          65.9693   92.5025   12.1115 C.3     1  UNL1        0.0044
     21 C          66.3182   92.0170   13.4872 C.3     1  UNL1        0.0190
     22 C          66.6670   91.5316   14.8629 C.3     1  UNL1        0.0044
     23 C          67.6221   92.7551   13.4169 C.3     1  UNL1        0.0044
     24 C          62.9154   85.0046   10.0345 C.3     1  UNL1        0.0307
     25 C          62.7622   84.0904   11.2138 C.ar    1  UNL1       -0.0167
     26 C          62.9167   82.6086   11.0391 C.ar    1  UNL1        0.0268
     27 C          62.7635   81.6944   12.2183 C.ar    1  UNL1        0.1556
     28 F          62.9180   80.2126   12.0436 F       1  UNL1       -0.2028
     29 C          62.4559   82.2619   13.5723 C.ar    1  UNL1        0.1037
     30 N          62.3027   81.3477   14.7516 N.pl3   1  UNL1       -0.3529
     31 C          62.3014   83.7436   13.7470 C.ar    1  UNL1        0.1538
     32 C          62.4545   84.6579   12.5677 C.ar    1  UNL1        0.0341
     33 H          62.4041   80.3751   14.6369 H       1  UNL1        0.1425
     34 H          62.1007   81.7202   15.6402 H       1  UNL1        0.1425
     35 O          61.9937   84.3111   15.1010 O.3     1  UNL1       -0.4621
     36 C          63.0228   85.1299   15.8226 C.3     1  UNL1        0.3551
     37 C          64.4103   85.2507   15.2656 C.3     1  UNL1        0.4428
     38 F          65.7979   85.3715   14.7087 F       1  UNL1       -0.1661
     39 F          64.1438   86.6839   14.9124 F       1  UNL1       -0.1661
     40 F          64.6769   83.8175   15.6188 F       1  UNL1       -0.1661
     41 C          62.6644   85.8278   17.1010 C.3     1  UNL1        0.4428
     42 F          62.3060   86.5257   18.3794 F       1  UNL1       -0.1661
     43 F          64.1072   85.8173   17.5112 F       1  UNL1       -0.1661
     44 F          61.2217   85.8383   16.6908 F       1  UNL1       -0.1661
@<TRIPOS>BOND
     1    20    21    1
     2    21    22    1
     3    21    23    1
     4    21    14    1
     5    14    15   ar
     6    15    16   ar
     7    16    17   ar
     8    17    18   ar
     9    18    13    1
    10    13    11    1
    11     1    11    1
    12     1     2    1
    13     2     3    1
    14     3     4    2
    15     3     5    2
    16     3     6    1
    17     6     7    1
    18     7    24    1
    19    24    25    1
    20    25    26   ar
    21    26    27   ar
    22    27    28    1
    23    27    29   ar
    24    29    30    1
    25    29    31   ar
    26    31    35    1
    27    35    36    1
    28    36    37    1
    29    37    38    1
    30    37    39    1
    31    37    40    1
    32    36    41    1
    33    41    42    1
    34    41    43    1
    35    41    44    1
    36    31    32   ar
    37     7     8    1
    38     8     9    1
    39    18    19   ar
    40    19    14   ar
    41     8     1    1
    42    32    25   ar
    43    11    12    1
    44    30    33    1
    45    30    34    1
    46     9    10    1
@<TRIPOS>MOLECULE
*****
 44 46 0 0 0
SMALL
GASTEIGER

@<TRIPOS>ATOM
      1 C          60.5898   87.8374   10.3267 C.3     1  UNL1        0.1054
      2 C          59.7761   87.5825    9.0927 C.3     1  UNL1        0.1689
      3 S          60.0865   86.4024    8.2203 S.O2    1  UNL1       -0.0085
      4 O          59.9955   85.4258    7.0854 O.2     1  UNL1       -0.1729
      5 O          58.9309   86.9883    7.4644 O.2     1  UNL1       -0.1729
      6 C          61.2105   85.4773    8.5820 C.3     1  UNL1        0.1536
      7 C          62.0241   85.7322    9.8161 C.3     1  UNL1        0.0562
      8 C          61.7138   86.9123   10.6884 C.3     1  UNL1        0.1285
      9 O          62.5274   87.1673   11.9226 O.3     1  UNL1       -0.3830
     10 H          62.1979   87.9633   12.3683 H       1  UNL1        0.2104
     11 N          60.2794   89.0176   11.1991 N.3     1  UNL1       -0.2902
     12 H          59.3160   89.2864   10.9991 H       1  UNL1        0.1237
     13 C          61.1071   90.2643   11.0966 C.3     1  UNL1        0.1152
     14 C          64.6121   91.5209   12.4698 C.ar    1  UNL1       -0.0200
     15 C          64.6539   90.8398   13.8055 C.ar    1  UNL1        0.0164
     16 C          63.5134   89.9669   14.2383 C.ar    1  UNL1        0.0982
     17 N          62.3312   89.7750   13.3354 N.ar    1  UNL1       -0.2468
     18 C          62.2894   90.4561   11.9996 C.ar    1  UNL1        0.0746
     19 C          63.4298   91.3291   11.5668 C.ar    1  UNL1        0.0118
     20 C          65.0961   92.5900   10.7026 C.3     1  UNL1        0.0044
     21 C          65.7526   92.3939   12.0370 C.3     1  UNL1        0.0190
     22 C          66.4091   92.1977   13.3714 C.3     1  UNL1        0.0044
     23 C          66.8930   93.2668   11.6042 C.3     1  UNL1        0.0044
     24 C          63.1481   84.8071   10.1778 C.3     1  UNL1        0.0307
     25 C          62.9652   83.7962   11.2707 C.ar    1  UNL1       -0.0167
     26 C          63.0077   82.3310   10.9520 C.ar    1  UNL1        0.0268
     27 C          62.8249   81.3202   12.0450 C.ar    1  UNL1        0.1556
     28 F          62.8674   79.8551   11.7262 F       1  UNL1       -0.2028
     29 C          62.5995   81.7743   13.4567 C.ar    1  UNL1        0.1037
     30 N          62.4167   80.7635   14.5496 N.pl3   1  UNL1       -0.3529
     31 C          62.5570   83.2394   13.7754 C.ar    1  UNL1        0.1538
     32 C          62.7399   84.2504   12.6824 C.ar    1  UNL1        0.0341
     33 H          62.4446   79.8018   14.3405 H       1  UNL1        0.1425
     34 H          62.2688   81.0616   15.4762 H       1  UNL1        0.1425
     35 O          62.3317   83.6936   15.1871 O.3     1  UNL1       -0.4621
     36 C          63.1260   84.8385   15.7425 C.3     1  UNL1        0.3551
     37 C          62.5652   85.6687   16.8588 C.3     1  UNL1        0.4428
     38 F          62.0044   86.4990   17.9752 F       1  UNL1       -0.1661
     39 F          61.1876   85.5051   16.2884 F       1  UNL1       -0.1661
     40 F          63.9428   85.8324   17.4292 F       1  UNL1       -0.1661
     41 C          64.4811   85.1532   15.1815 C.3     1  UNL1        0.4428
     42 F          65.8361   85.4678   14.6205 F       1  UNL1       -0.1661
     43 F          64.0205   86.5411   14.8475 F       1  UNL1       -0.1661
     44 F          64.9416   83.7653   15.5154 F       1  UNL1       -0.1661
@<TRIPOS>BOND
     1    20    21    1
     2    21    22    1
     3    21    23    1
     4    21    14    1
     5    14    15   ar
     6    15    16   ar
     7    16    17   ar
     8    17    18   ar
     9    18    13    1
    10    13    11    1
    11     1    11    1
    12     1     2    1
    13     2     3    1
    14     3     4    2
    15     3     5    2
    16     3     6    1
    17     6     7    1
    18     7    24    1
    19    24    25    1
    20    25    26   ar
    21    26    27   ar
    22    27    28    1
    23    27    29   ar
    24    29    30    1
    25    29    31   ar
    26    31    35    1
    27    35    36    1
    28    36    37    1
    29    37    38    1
    30    37    39    1
    31    37    40    1
    32    36    41    1
    33    41    42    1
    34    41    43    1
    35    41    44    1
    36    31    32   ar
    37     7     8    1
    38     8     9    1
    39    18    19   ar
    40    19    14   ar
    41     8     1    1
    42    32    25   ar
    43    11    12    1
    44    30    33    1
    45    30    34    1
    46     9    10    1
@<TRIPOS>MOLECULE
*****
 44 46 0 0 0
SMALL
GASTEIGER

@<TRIPOS>ATOM
      1 C          61.0808   88.4503   10.1718 C.3     1  UNL1        0.1054
      2 C          60.0535   88.2188    9.1037 C.3     1  UNL1        0.1689
      3 S          60.0247   86.9163    8.3605 S.O2    1  UNL1       -0.0085
      4 O          59.5977   85.8580    7.3870 O.2     1  UNL1       -0.1729
      5 O          58.8778   87.6197    7.6974 O.2     1  UNL1       -0.1729
      6 C          61.0234   85.8452    8.6853 C.3     1  UNL1        0.1536
      7 C          62.0507   86.0767    9.7535 C.3     1  UNL1        0.0562
      8 C          62.0794   87.3793   10.4967 C.3     1  UNL1        0.1285
      9 O          63.1068   87.6108   11.5649 O.3     1  UNL1       -0.3830
     10 H          62.9868   88.4963   11.9424 H       1  UNL1        0.2104
     11 N          61.1096   89.7530   10.9151 N.3     1  UNL1       -0.2902
     12 H          60.1490   90.0946   10.9477 H       1  UNL1        0.1237
     13 C          61.9550   90.8851   10.4118 C.3     1  UNL1        0.1152
     14 C          65.4839   92.5177   11.2068 C.ar    1  UNL1       -0.0200
     15 C          65.7046   92.0448   12.6131 C.ar    1  UNL1        0.0164
     16 C          64.6755   91.1854   13.2856 C.ar    1  UNL1        0.0982
     17 N          63.4256   90.7988   12.5519 N.ar    1  UNL1       -0.2468
     18 C          63.2049   91.2717   11.1456 C.ar    1  UNL1        0.0746
     19 C          64.2340   92.1311   10.4731 C.ar    1  UNL1        0.0118
     20 C          67.3993   92.1796   10.3603 C.3     1  UNL1        0.0044
     21 C          66.5130   93.3771   10.5343 C.3     1  UNL1        0.0190
     22 C          65.6266   94.5746   10.7083 C.3     1  UNL1        0.0044
     23 C          67.5421   94.2366    9.8617 C.3     1  UNL1        0.0044
     24 C          63.0493   85.0056   10.0784 C.3     1  UNL1        0.0307
     25 C          62.8304   84.1101   11.2616 C.ar    1  UNL1       -0.0167
     26 C          62.9311   82.6217   11.1046 C.ar    1  UNL1        0.0268
     27 C          62.7123   81.7262   12.2878 C.ar    1  UNL1        0.1556
     28 F          62.8129   80.2379   12.1307 F       1  UNL1       -0.2028
     29 C          62.3927   82.3190   13.6281 C.ar    1  UNL1        0.1037
     30 N          62.1738   81.4235   14.8114 N.pl3   1  UNL1       -0.3529
     31 C          62.2920   83.8073   13.7852 C.ar    1  UNL1        0.1538
     32 C          62.5109   84.7029   12.6019 C.ar    1  UNL1        0.0341
     33 H          62.2399   80.4466   14.7083 H       1  UNL1        0.1425
     34 H          61.9640   81.8126   15.6911 H       1  UNL1        0.1425
     35 O          61.9724   84.4001   15.1255 O.3     1  UNL1       -0.4621
     36 C          63.0065   85.2053   15.8553 C.3     1  UNL1        0.3551
     37 C          64.3911   85.3339   15.2930 C.3     1  UNL1        0.4428
     38 F          65.7758   85.4625   14.7307 F       1  UNL1       -0.1661
     39 F          64.6554   83.8927   15.6141 F       1  UNL1       -0.1661
     40 F          64.1269   86.7751   14.9720 F       1  UNL1       -0.1661
     41 C          62.6559   85.8817   17.1474 C.3     1  UNL1        0.4428
     42 F          62.3052   86.5582   18.4394 F       1  UNL1       -0.1661
     43 F          64.0962   85.8335   17.5635 F       1  UNL1       -0.1661
     44 F          61.2156   85.9300   16.7313 F       1  UNL1       -0.1661
@<TRIPOS>BOND
     1    20    21    1
     2    21    22    1
     3    21    23    1
     4    21    14    1
     5    14    15   ar
     6    15    16   ar
     7    16    17   ar
     8    17    18   ar
     9    18    13    1
    10    13    11    1
    11     1    11    1
    12     1     2    1
    13     2     3    1
    14     3     4    2
    15     3     5    2
    16     3     6    1
    17     6     7    1
    18     7    24    1
    19    24    25    1
    20    25    26   ar
    21    26    27   ar
    22    27    28    1
    23    27    29   ar
    24    29    30    1
    25    29    31   ar
    26    31    35    1
    27    35    36    1
    28    36    37    1
    29    37    38    1
    30    37    39    1
    31    37    40    1
    32    36    41    1
    33    41    42    1
    34    41    43    1
    35    41    44    1
    36    31    32   ar
    37     7     8    1
    38     8     9    1
    39    18    19   ar
    40    19    14   ar
    41     8     1    1
    42    32    25   ar
    43    11    12    1
    44    30    33    1
    45    30    34    1
    46     9    10    1
@<TRIPOS>MOLECULE
*****
 44 46 0 0 0
SMALL
GASTEIGER

@<TRIPOS>ATOM
      1 C          60.8279   87.6484   10.4508 C.3     1  UNL1        0.1054
      2 C          59.6257   88.1387   11.2019 C.3     1  UNL1        0.1689
      3 S          59.5098   89.5889   11.5674 S.O2    1  UNL1       -0.0085
      4 O          58.9490   90.8589   12.1353 O.2     1  UNL1       -0.1729
      5 O          58.2287   89.0703   12.1503 O.2     1  UNL1       -0.1729
      6 C          60.5961   90.5487   11.1818 C.3     1  UNL1        0.1536
      7 C          61.7983   90.0583   10.4307 C.3     1  UNL1        0.0562
      8 C          61.9142   88.6081   10.0652 C.3     1  UNL1        0.1285
      9 O          63.1165   88.1177    9.3141 O.3     1  UNL1       -0.3830
     10 H          63.0340   87.1637    9.1593 H       1  UNL1        0.2104
     11 N          60.9438   86.1981   10.0853 N.3     1  UNL1       -0.2902
     12 H          60.2495   85.6981   10.6406 H       1  UNL1        0.1237
     13 C          62.2470   85.4794   10.2723 C.3     1  UNL1        0.1152
     14 C          62.6365   82.6145   12.9909 C.ar    1  UNL1       -0.0200
     15 C          63.1337   83.4040   14.1654 C.ar    1  UNL1        0.0164
     16 C          63.3353   84.8853   14.0422 C.ar    1  UNL1        0.0982
     17 N          63.0398   85.5771   12.7445 N.ar    1  UNL1       -0.2468
     18 C          62.5426   84.7876   11.5700 C.ar    1  UNL1        0.0746
     19 C          62.3410   83.3064   11.6932 C.ar    1  UNL1        0.0118
     20 C          61.7743   81.3339   14.4458 C.3     1  UNL1        0.0044
     21 C          62.4349   81.1333   13.1141 C.3     1  UNL1        0.0190
     22 C          63.0954   80.9326   11.7824 C.3     1  UNL1        0.0044
     23 C          62.2332   79.6520   13.2372 C.3     1  UNL1        0.0044
     24 C          62.8847   91.0180   10.0451 C.3     1  UNL1        0.0307
     25 C          63.8960   91.4546   11.0632 C.ar    1  UNL1       -0.0167
     26 C          63.9065   90.8284   12.4262 C.ar    1  UNL1        0.0268
     27 C          64.9178   91.2649   13.4444 C.ar    1  UNL1        0.1556
     28 F          64.9283   90.6387   14.8073 F       1  UNL1       -0.2028
     29 C          65.9186   92.3277   13.0995 C.ar    1  UNL1        0.1037
     30 N          66.9299   92.7643   14.1177 N.pl3   1  UNL1       -0.3529
     31 C          65.9081   92.9540   11.7366 C.ar    1  UNL1        0.1538
     32 C          64.8968   92.5174   10.7184 C.ar    1  UNL1        0.0341
     33 H          66.9368   92.3533   15.0123 H       1  UNL1        0.1425
     34 H          67.5867   93.4618   13.8914 H       1  UNL1        0.1425
     35 O          66.9089   94.0168   11.3918 O.3     1  UNL1       -0.4621
     36 C          67.2903   94.2516    9.9602 C.3     1  UNL1        0.3551
     37 C          68.0131   93.1852    9.1920 C.3     1  UNL1        0.4428
     38 F          68.7360   92.1187    8.4238 F       1  UNL1       -0.1661
     39 F          68.5795   92.6467   10.4723 F       1  UNL1       -0.1661
     40 F          67.4468   93.7236    7.9116 F       1  UNL1       -0.1661
     41 C          66.9489   95.5529    9.2969 C.3     1  UNL1        0.4428
     42 F          66.6075   96.8542    8.6335 F       1  UNL1       -0.1661
     43 F          65.5631   95.4795    9.8661 F       1  UNL1       -0.1661
     44 F          68.3347   95.6263    8.7276 F       1  UNL1       -0.1661
@<TRIPOS>BOND
     1    20    21    1
     2    21    22    1
     3    21    23    1
     4    21    14    1
     5    14    15   ar
     6    15    16   ar
     7    16    17   ar
     8    17    18   ar
     9    18    13    1
    10    13    11    1
    11     1    11    1
    12     1     2    1
    13     2     3    1
    14     3     4    2
    15     3     5    2
    16     3     6    1
    17     6     7    1
    18     7    24    1
    19    24    25    1
    20    25    26   ar
    21    26    27   ar
    22    27    28    1
    23    27    29   ar
    24    29    30    1
    25    29    31   ar
    26    31    35    1
    27    35    36    1
    28    36    37    1
    29    37    38    1
    30    37    39    1
    31    37    40    1
    32    36    41    1
    33    41    42    1
    34    41    43    1
    35    41    44    1
    36    31    32   ar
    37     7     8    1
    38     8     9    1
    39    18    19   ar
    40    19    14   ar
    41     8     1    1
    42    32    25   ar
    43    11    12    1
    44    30    33    1
    45    30    34    1
    46     9    10    1
@<TRIPOS>MOLECULE
*****
 44 46 0 0 0
SMALL
GASTEIGER

@<TRIPOS>ATOM
      1 C          63.0816   87.5990   12.4546 C.3     1  UNL1        0.1054
      2 C          62.3820   87.9169   11.1664 C.3     1  UNL1        0.1689
      3 S          62.1201   89.3444   10.7877 S.O2    1  UNL1       -0.0085
      4 O          61.6494   90.5296    9.9979 O.2     1  UNL1       -0.1729
      5 O          61.5191   88.6465    9.6038 O.2     1  UNL1       -0.1729
      6 C          62.5577   90.4541   11.6972 C.3     1  UNL1        0.1536
      7 C          63.2572   90.1362   12.9855 C.3     1  UNL1        0.0562
      8 C          63.5191   88.7086   13.3641 C.3     1  UNL1        0.1285
      9 O          64.2187   88.3906   14.6524 O.3     1  UNL1       -0.3830
     10 H          64.3076   87.4290   14.7432 H       1  UNL1        0.2104
     11 N          63.3435   86.1714   12.8334 N.3     1  UNL1       -0.2902
     12 H          64.3564   86.0519   12.8488 H       1  UNL1        0.1237
     13 C          62.7891   85.0588   11.9938 C.3     1  UNL1        0.1152
     14 C          62.7032   81.0963   12.1970 C.ar    1  UNL1       -0.0200
     15 C          62.5220   80.8920   13.6719 C.ar    1  UNL1        0.0164
     16 C          62.4299   82.0766   14.5875 C.ar    1  UNL1        0.0982
     17 N          62.5189   83.4655   14.0281 N.ar    1  UNL1       -0.2468
     18 C          62.7001   83.6698   12.5532 C.ar    1  UNL1        0.0746
     19 C          62.7922   82.4853   11.6377 C.ar    1  UNL1        0.0118
     20 C          62.3869   79.0094   12.4078 C.3     1  UNL1        0.0044
     21 C          62.7953   79.9118   11.2814 C.3     1  UNL1        0.0190
     22 C          63.2037   80.8142   10.1550 C.3     1  UNL1        0.0044
     23 C          62.8874   78.7272   10.3658 C.3     1  UNL1        0.0044
     24 C          63.6947   91.2458   13.8950 C.3     1  UNL1        0.0307
     25 C          65.1508   91.5844   14.0183 C.ar    1  UNL1       -0.0167
     26 C          65.7707   91.7472   15.3746 C.ar    1  UNL1        0.0268
     27 C          67.2267   92.0857   15.4979 C.ar    1  UNL1        0.1556
     28 F          67.8466   92.2485   16.8541 F       1  UNL1       -0.2028
     29 C          68.0629   92.2615   14.2651 C.ar    1  UNL1        0.1037
     30 N          69.5190   92.6001   14.3885 N.pl3   1  UNL1       -0.3529
     31 C          67.4431   92.0987   12.9089 C.ar    1  UNL1        0.1538
     32 C          65.9870   91.7601   12.7855 C.ar    1  UNL1        0.0341
     33 H          69.9258   92.7069   15.2786 H       1  UNL1        0.1425
     34 H          70.0678   92.7154   13.5793 H       1  UNL1        0.1425
     35 O          68.2793   92.2745   11.6761 O.3     1  UNL1       -0.4621
     36 C          67.6710   92.8545   10.4337 C.3     1  UNL1        0.3551
     37 C          66.4264   93.6866   10.5260 C.3     1  UNL1        0.4428
     38 F          65.1817   94.5187   10.6184 F       1  UNL1       -0.1661
     39 F          67.2197   94.8059   11.1325 F       1  UNL1       -0.1661
     40 F          65.6331   92.5673    9.9195 F       1  UNL1       -0.1661
     41 C          68.3074   92.6025    9.0990 C.3     1  UNL1        0.4428
     42 F          68.9437   92.3504    7.7642 F       1  UNL1       -0.1661
     43 F          68.4288   94.0810    8.8777 F       1  UNL1       -0.1661
     44 F          68.1859   91.1239    9.3203 F       1  UNL1       -0.1661
@<TRIPOS>BOND
     1    20    21    1
     2    21    22    1
     3    21    23    1
     4    21    14    1
     5    14    15   ar
     6    15    16   ar
     7    16    17   ar
     8    17    18   ar
     9    18    13    1
    10    13    11    1
    11     1    11    1
    12     1     2    1
    13     2     3    1
    14     3     4    2
    15     3     5    2
    16     3     6    1
    17     6     7    1
    18     7    24    1
    19    24    25    1
    20    25    26   ar
    21    26    27   ar
    22    27    28    1
    23    27    29   ar
    24    29    30    1
    25    29    31   ar
    26    31    35    1
    27    35    36    1
    28    36    37    1
    29    37    38    1
    30    37    39    1
    31    37    40    1
    32    36    41    1
    33    41    42    1
    34    41    43    1
    35    41    44    1
    36    31    32   ar
    37     7     8    1
    38     8     9    1
    39    18    19   ar
    40    19    14   ar
    41     8     1    1
    42    32    25   ar
    43    11    12    1
    44    30    33    1
    45    30    34    1
    46     9    10    1
@<TRIPOS>MOLECULE
*****
 44 46 0 0 0
SMALL
GASTEIGER

@<TRIPOS>ATOM
      1 C          63.0778   87.5850   12.3768 C.3     1  UNL1        0.1054
      2 C          62.3424   87.9111   11.1108 C.3     1  UNL1        0.1689
      3 S          62.0370   89.3390   10.7675 S.O2    1  UNL1       -0.0085
      4 O          61.5199   90.5276   10.0126 O.2     1  UNL1       -0.1729
      5 O          61.4274   88.6501    9.5826 O.2     1  UNL1       -0.1729
      6 C          62.4670   90.4407   11.6901 C.3     1  UNL1        0.1536
      7 C          63.2024   90.1146   12.9561 C.3     1  UNL1        0.0562
      8 C          63.5078   88.6868   13.2994 C.3     1  UNL1        0.1285
      9 O          64.2433   88.3606   14.5655 O.3     1  UNL1       -0.3830
     10 H          64.3579   87.3999   14.6344 H       1  UNL1        0.2104
     11 N          63.3833   86.1571   12.7202 N.3     1  UNL1       -0.2902
     12 H          64.3951   86.0479   12.6522 H       1  UNL1        0.1237
     13 C          62.7731   85.0459   11.9185 C.3     1  UNL1        0.1152
     14 C          62.6759   81.0883   12.1986 C.ar    1  UNL1       -0.0200
     15 C          62.4621   80.9137   13.6729 C.ar    1  UNL1        0.0164
     16 C          62.3520   82.1164   14.5625 C.ar    1  UNL1        0.0982
     17 N          62.4556   83.4938   13.9777 N.ar    1  UNL1       -0.2468
     18 C          62.6694   83.6684   12.5033 C.ar    1  UNL1        0.0746
     19 C          62.7795   82.4657   11.6138 C.ar    1  UNL1        0.0118
     20 C          63.1389   80.7733   10.1525 C.3     1  UNL1        0.0044
     21 C          62.7860   79.8856   11.3090 C.3     1  UNL1        0.0190
     22 C          62.4331   78.9979   12.4655 C.3     1  UNL1        0.0044
     23 C          62.8962   78.6829   10.4194 C.3     1  UNL1        0.0044
     24 C          63.6324   91.2163   13.8788 C.3     1  UNL1        0.0307
     25 C          65.0856   91.5669   14.0023 C.ar    1  UNL1       -0.0167
     26 C          65.6977   91.7610   15.3579 C.ar    1  UNL1        0.0268
     27 C          67.1509   92.1115   15.4814 C.ar    1  UNL1        0.1556
     28 F          67.7629   92.3056   16.8370 F       1  UNL1       -0.2028
     29 C          67.9920   92.2679   14.2494 C.ar    1  UNL1        0.1037
     30 N          69.4452   92.6184   14.3729 N.pl3   1  UNL1       -0.3529
     31 C          67.3800   92.0738   12.8938 C.ar    1  UNL1        0.1538
     32 C          65.9267   91.7233   12.7702 C.ar    1  UNL1        0.0341
     33 H          69.8470   92.7458   15.2626 H       1  UNL1        0.1425
     34 H          69.9973   92.7211   13.5642 H       1  UNL1        0.1425
     35 O          68.2211   92.2302   11.6617 O.3     1  UNL1       -0.4621
     36 C          67.6304   92.8336   10.4219 C.3     1  UNL1        0.3551
     37 C          68.2826   92.6021    9.0911 C.3     1  UNL1        0.4428
     38 F          68.9348   92.3707    7.7603 F       1  UNL1       -0.1661
     39 F          68.1827   91.1201    9.2999 F       1  UNL1       -0.1661
     40 F          68.3824   94.0842    8.8822 F       1  UNL1       -0.1661
     41 C          66.3875   93.6684   10.5130 C.3     1  UNL1        0.4428
     42 F          65.1447   94.5032   10.6040 F       1  UNL1       -0.1661
     43 F          67.1850   94.7909   11.1078 F       1  UNL1       -0.1661
     44 F          65.5900   92.5459    9.9181 F       1  UNL1       -0.1661
@<TRIPOS>BOND
     1    20    21    1
     2    21    22    1
     3    21    23    1
     4    21    14    1
     5    14    15   ar
     6    15    16   ar
     7    16    17   ar
     8    17    18   ar
     9    18    13    1
    10    13    11    1
    11     1    11    1
    12     1     2    1
    13     2     3    1
    14     3     4    2
    15     3     5    2
    16     3     6    1
    17     6     7    1
    18     7    24    1
    19    24    25    1
    20    25    26   ar
    21    26    27   ar
    22    27    28    1
    23    27    29   ar
    24    29    30    1
    25    29    31   ar
    26    31    35    1
    27    35    36    1
    28    36    37    1
    29    37    38    1
    30    37    39    1
    31    37    40    1
    32    36    41    1
    33    41    42    1
    34    41    43    1
    35    41    44    1
    36    31    32   ar
    37     7     8    1
    38     8     9    1
    39    18    19   ar
    40    19    14   ar
    41     8     1    1
    42    32    25   ar
    43    11    12    1
    44    30    33    1
    45    30    34    1
    46     9    10    1
@<TRIPOS>MOLECULE
*****
 44 46 0 0 0
SMALL
GASTEIGER

@<TRIPOS>ATOM
      1 C          62.8145   87.9827   12.1912 C.3     1  UNL1        0.1054
      2 C          62.3562   88.6322   10.9192 C.3     1  UNL1        0.1689
      3 S          62.4451   90.1214   10.7633 S.O2    1  UNL1       -0.0085
      4 O          62.3301   91.4833   10.1452 O.2     1  UNL1       -0.1729
      5 O          61.8580   89.7548    9.4326 O.2     1  UNL1       -0.1729
      6 C          62.9923   90.9610   11.8794 C.3     1  UNL1        0.1536
      7 C          63.4505   90.3115   13.1514 C.3     1  UNL1        0.0562
      8 C          63.3616   88.8223   13.3073 C.3     1  UNL1        0.1285
      9 O          63.8199   88.1726   14.5794 O.3     1  UNL1       -0.3830
     10 H          63.6947   87.2129   14.5156 H       1  UNL1        0.2104
     11 N          62.7256   86.4934   12.3472 N.3     1  UNL1       -0.2902
     12 H          63.6372   86.1770   12.6778 H       1  UNL1        0.1237
     13 C          62.3708   85.6357   11.1689 C.3     1  UNL1        0.1152
     14 C          62.8314   81.8037   12.0928 C.ar    1  UNL1       -0.0200
     15 C          63.7578   81.3582   11.0005 C.ar    1  UNL1        0.0164
     16 C          64.2219   82.3384    9.9643 C.ar    1  UNL1        0.0982
     17 N          63.7596   83.7643   10.0204 N.ar    1  UNL1       -0.2468
     18 C          62.8332   84.2098   11.1127 C.ar    1  UNL1        0.0746
     19 C          62.3691   83.2296   12.1489 C.ar    1  UNL1        0.0118
     20 C          62.0608   81.9562   14.0633 C.3     1  UNL1        0.0044
     21 C          62.3674   80.8235   13.1290 C.3     1  UNL1        0.0190
     22 C          62.6740   79.6907   12.1948 C.3     1  UNL1        0.0044
     23 C          61.9033   79.8432   14.1652 C.3     1  UNL1        0.0044
     24 C          63.9977   91.1511   14.2675 C.3     1  UNL1        0.0307
     25 C          65.4531   91.5131   14.2896 C.ar    1  UNL1       -0.0167
     26 C          66.1491   91.7427   15.5984 C.ar    1  UNL1        0.0268
     27 C          67.6046   92.1047   15.6205 C.ar    1  UNL1        0.1556
     28 F          68.3005   92.3342   16.9293 F       1  UNL1       -0.2028
     29 C          68.3641   92.2372   14.3338 C.ar    1  UNL1        0.1037
     30 N          69.8196   92.5993   14.3559 N.pl3   1  UNL1       -0.3529
     31 C          67.6682   92.0077   13.0251 C.ar    1  UNL1        0.1538
     32 C          66.2126   91.6457   13.0029 C.ar    1  UNL1        0.0341
     33 H          70.2763   92.7499   15.2149 H       1  UNL1        0.1425
     34 H          70.3180   92.6863   13.5114 H       1  UNL1        0.1425
     35 O          68.4277   92.1403   11.7384 O.3     1  UNL1       -0.4621
     36 C          67.7528   92.7057   10.5239 C.3     1  UNL1        0.3551
     37 C          66.4679   93.4666   10.6658 C.3     1  UNL1        0.4428
     38 F          65.1831   94.2275   10.8078 F       1  UNL1       -0.1661
     39 F          65.7139   92.2981   10.1036 F       1  UNL1       -0.1661
     40 F          67.2220   94.6351   11.2280 F       1  UNL1       -0.1661
     41 C          68.3628   92.5103    9.1676 C.3     1  UNL1        0.4428
     42 F          68.9728   92.3148    7.8112 F       1  UNL1       -0.1661
     43 F          68.2242   91.0244    9.3193 F       1  UNL1       -0.1661
     44 F          68.5015   93.9961    9.0158 F       1  UNL1       -0.1661
@<TRIPOS>BOND
     1    20    21    1
     2    21    22    1
     3    21    23    1
     4    21    14    1
     5    14    15   ar
     6    15    16   ar
     7    16    17   ar
     8    17    18   ar
     9    18    13    1
    10    13    11    1
    11     1    11    1
    12     1     2    1
    13     2     3    1
    14     3     4    2
    15     3     5    2
    16     3     6    1
    17     6     7    1
    18     7    24    1
    19    24    25    1
    20    25    26   ar
    21    26    27   ar
    22    27    28    1
    23    27    29   ar
    24    29    30    1
    25    29    31   ar
    26    31    35    1
    27    35    36    1
    28    36    37    1
    29    37    38    1
    30    37    39    1
    31    37    40    1
    32    36    41    1
    33    41    42    1
    34    41    43    1
    35    41    44    1
    36    31    32   ar
    37     7     8    1
    38     8     9    1
    39    18    19   ar
    40    19    14   ar
    41     8     1    1
    42    32    25   ar
    43    11    12    1
    44    30    33    1
    45    30    34    1
    46     9    10    1
@<TRIPOS>MOLECULE
*****
 44 46 0 0 0
SMALL
GASTEIGER

@<TRIPOS>ATOM
      1 C          60.8173   87.5626   10.5289 C.3     1  UNL1        0.1054
      2 C          59.6091   88.1064   11.2320 C.3     1  UNL1        0.1689
      3 S          59.5236   89.5690   11.5537 S.O2    1  UNL1       -0.0085
      4 O          58.9830   90.8694   12.0701 O.2     1  UNL1       -0.1729
      5 O          58.2131   89.1020   12.1145 O.2     1  UNL1       -0.1729
      6 C          60.6463   90.4877   11.1723 C.3     1  UNL1        0.1536
      7 C          61.8545   89.9439   10.4692 C.3     1  UNL1        0.0562
      8 C          61.9400   88.4813   10.1475 C.3     1  UNL1        0.1285
      9 O          63.1483   87.9374    9.4444 O.3     1  UNL1       -0.3830
     10 H          63.0436   86.9819    9.3138 H       1  UNL1        0.2104
     11 N          60.9029   86.0999   10.2072 N.3     1  UNL1       -0.2902
     12 H          60.4532   85.6026   10.9758 H       1  UNL1        0.1237
     13 C          62.2409   85.4550    9.9981 C.3     1  UNL1        0.1152
     14 C          63.5631   84.5892   13.6385 C.ar    1  UNL1       -0.0200
     15 C          64.2426   83.2756   13.3883 C.ar    1  UNL1        0.0164
     16 C          64.2549   82.6884   12.0080 C.ar    1  UNL1        0.0982
     17 N          63.5877   83.4149   10.8780 N.ar    1  UNL1       -0.2468
     18 C          62.9081   84.7285   11.1282 C.ar    1  UNL1        0.0746
     19 C          62.8959   85.3157   12.5084 C.ar    1  UNL1        0.0118
     20 C          64.6086   86.1583   14.6104 C.3     1  UNL1        0.0044
     21 C          63.5508   85.1764   15.0187 C.3     1  UNL1        0.0190
     22 C          62.4929   84.1945   15.4270 C.3     1  UNL1        0.0044
     23 C          63.5385   85.7636   16.3989 C.3     1  UNL1        0.0044
     24 C          62.9772   90.8626   10.0878 C.3     1  UNL1        0.0307
     25 C          63.9408   91.3432   11.1321 C.ar    1  UNL1       -0.0167
     26 C          63.8821   90.7818   12.5219 C.ar    1  UNL1        0.0268
     27 C          64.8456   91.2624   13.5662 C.ar    1  UNL1        0.1556
     28 F          64.7868   90.7011   14.9559 F       1  UNL1       -0.2028
     29 C          65.8679   92.3043   13.2207 C.ar    1  UNL1        0.1037
     30 N          66.8315   92.7849   14.2650 N.pl3   1  UNL1       -0.3529
     31 C          65.9267   92.8656   11.8310 C.ar    1  UNL1        0.1538
     32 C          64.9631   92.3850   10.7866 C.ar    1  UNL1        0.0341
     33 H          66.7929   92.4165   15.1771 H       1  UNL1        0.1425
     34 H          67.5024   93.4687   14.0382 H       1  UNL1        0.1425
     35 O          66.9490   93.9075   11.4855 O.3     1  UNL1       -0.4621
     36 C          67.2204   94.2448   10.0493 C.3     1  UNL1        0.3551
     37 C          67.9697   93.2784    9.1806 C.3     1  UNL1        0.4428
     38 F          68.7191   92.3120    8.3120 F       1  UNL1       -0.1661
     39 F          68.6160   92.6857   10.3976 F       1  UNL1       -0.1661
     40 F          67.3235   93.8711    7.9637 F       1  UNL1       -0.1661
     41 C          66.7424   95.5484    9.4818 C.3     1  UNL1        0.4428
     42 F          66.2645   96.8520    8.9142 F       1  UNL1       -0.1661
     43 F          68.0769   95.7532    8.8282 F       1  UNL1       -0.1661
     44 F          65.4079   95.3436   10.1353 F       1  UNL1       -0.1661
@<TRIPOS>BOND
     1    20    21    1
     2    21    22    1
     3    21    23    1
     4    21    14    1
     5    14    15   ar
     6    15    16   ar
     7    16    17   ar
     8    17    18   ar
     9    18    13    1
    10    13    11    1
    11     1    11    1
    12     1     2    1
    13     2     3    1
    14     3     4    2
    15     3     5    2
    16     3     6    1
    17     6     7    1
    18     7    24    1
    19    24    25    1
    20    25    26   ar
    21    26    27   ar
    22    27    28    1
    23    27    29   ar
    24    29    30    1
    25    29    31   ar
    26    31    35    1
    27    35    36    1
    28    36    37    1
    29    37    38    1
    30    37    39    1
    31    37    40    1
    32    36    41    1
    33    41    42    1
    34    41    43    1
    35    41    44    1
    36    31    32   ar
    37     7     8    1
    38     8     9    1
    39    18    19   ar
    40    19    14   ar
    41     8     1    1
    42    32    25   ar
    43    11    12    1
    44    30    33    1
    45    30    34    1
    46     9    10    1
@<TRIPOS>MOLECULE
*****
 44 46 0 0 0
SMALL
GASTEIGER

@<TRIPOS>ATOM
      1 C          60.8535   87.5681   10.5264 C.3     1  UNL1        0.1054
      2 C          59.6537   88.0570   11.2822 C.3     1  UNL1        0.1689
      3 S          59.5327   89.5087   11.6396 S.O2    1  UNL1       -0.0085
      4 O          58.9691   90.7794   12.2033 O.2     1  UNL1       -0.1729
      5 O          58.2580   88.9872   12.2338 O.2     1  UNL1       -0.1729
      6 C          60.6117   90.4716   11.2411 C.3     1  UNL1        0.1536
      7 C          61.8115   89.9827   10.4853 C.3     1  UNL1        0.0562
      8 C          61.9325   88.5310   10.1280 C.3     1  UNL1        0.1285
      9 O          63.1324   88.0420    9.3721 O.3     1  UNL1       -0.3830
     10 H          63.0538   87.0867    9.2237 H       1  UNL1        0.2104
     11 N          60.9745   86.1163   10.1690 N.3     1  UNL1       -0.2902
     12 H          60.4350   85.5967   10.8614 H       1  UNL1        0.1237
     13 C          62.3268   85.4709   10.1005 C.3     1  UNL1        0.1152
     14 C          63.4331   84.5500   13.7989 C.ar    1  UNL1       -0.0200
     15 C          63.8841   83.1313   13.6149 C.ar    1  UNL1        0.0164
     16 C          63.8159   82.4924   12.2594 C.ar    1  UNL1        0.0982
     17 N          63.2969   83.2723   11.0880 N.ar    1  UNL1       -0.2468
     18 C          62.8459   84.6910   11.2720 C.ar    1  UNL1        0.0746
     19 C          62.9140   85.3298   12.6274 C.ar    1  UNL1        0.0118
     20 C          62.4662   84.2277   15.6593 C.3     1  UNL1        0.0044
     21 C          63.5012   85.1888   15.1543 C.3     1  UNL1        0.0190
     22 C          64.5363   86.1499   14.6493 C.3     1  UNL1        0.0044
     23 C          63.5694   85.8276   16.5098 C.3     1  UNL1        0.0044
     24 C          62.8905   90.9456   10.0868 C.3     1  UNL1        0.0307
     25 C          63.8949   91.4079   11.1004 C.ar    1  UNL1       -0.0167
     26 C          63.9250   90.7850   12.4646 C.ar    1  UNL1        0.0268
     27 C          64.9294   91.2473   13.4782 C.ar    1  UNL1        0.1556
     28 F          64.9596   90.6244   14.8424 F       1  UNL1       -0.2028
     29 C          65.9037   92.3326   13.1276 C.ar    1  UNL1        0.1037
     30 N          66.9081   92.7949   14.1412 N.pl3   1  UNL1       -0.3529
     31 C          65.8736   92.9556   11.7635 C.ar    1  UNL1        0.1538
     32 C          64.8692   92.4932   10.7498 C.ar    1  UNL1        0.0341
     33 H          66.9279   92.3861   15.0365 H       1  UNL1        0.1425
     34 H          67.5476   93.5072   13.9111 H       1  UNL1        0.1425
     35 O          66.8479   94.0408   11.4129 O.3     1  UNL1       -0.4621
     36 C          67.2491   94.2555    9.9835 C.3     1  UNL1        0.3551
     37 C          66.9367   95.5557    9.3040 C.3     1  UNL1        0.4428
     38 F          66.6243   96.8560    8.6245 F       1  UNL1       -0.1661
     39 F          68.3479   95.6320    8.8011 F       1  UNL1       -0.1661
     40 F          65.5256   95.4795    9.8068 F       1  UNL1       -0.1661
     41 C          67.9627   93.1699    9.2337 C.3     1  UNL1        0.4428
     42 F          68.6763   92.0843    8.4839 F       1  UNL1       -0.1661
     43 F          67.4816   93.7495    7.9366 F       1  UNL1       -0.1661
     44 F          68.4439   92.5903   10.5308 F       1  UNL1       -0.1661
@<TRIPOS>BOND
     1    20    21    1
     2    21    22    1
     3    21    23    1
     4    21    14    1
     5    14    15   ar
     6    15    16   ar
     7    16    17   ar
     8    17    18   ar
     9    18    13    1
    10    13    11    1
    11     1    11    1
    12     1     2    1
    13     2     3    1
    14     3     4    2
    15     3     5    2
    16     3     6    1
    17     6     7    1
    18     7    24    1
    19    24    25    1
    20    25    26   ar
    21    26    27   ar
    22    27    28    1
    23    27    29   ar
    24    29    30    1
    25    29    31   ar
    26    31    35    1
    27    35    36    1
    28    36    37    1
    29    37    38    1
    30    37    39    1
    31    37    40    1
    32    36    41    1
    33    41    42    1
    34    41    43    1
    35    41    44    1
    36    31    32   ar
    37     7     8    1
    38     8     9    1
    39    18    19   ar
    40    19    14   ar
    41     8     1    1
    42    32    25   ar
    43    11    12    1
    44    30    33    1
    45    30    34    1
    46     9    10    1
