@<TRIPOS>MOLECULE
*****
 37 42 0 0 0
SMALL
GASTEIGER

@<TRIPOS>ATOM
      1 C          62.4679   87.7512   11.8109 C.3     1  UNL1        0.1023
      2 C          62.7674   86.3590   12.2824 C.2     1  UNL1       -0.0217
      3 C          62.1865   85.1808   11.5585 C.2     1  UNL1       -0.0050
      4 C          62.4860   83.7886   12.0300 C.2     1  UNL1        0.0201
      5 C          63.3665   83.5748   13.2255 C.2     1  UNL1        0.1007
      6 N          63.8349   82.3289   13.9171 N.2     1  UNL1       -0.1482
      7 N          64.7053   82.7373   15.0684 N.2     1  UNL1       -0.1467
      8 C          64.7748   84.2355   15.0884 C.2     1  UNL1        0.1197
      9 C          63.9474   84.7532   13.9494 C.2     1  UNL1        0.0216
     10 C          63.6479   86.1453   13.4779 C.3     1  UNL1        0.0466
     11 C          64.2288   87.3236   14.2018 C.3     1  UNL1        0.0245
     12 C          63.9293   88.7157   13.7302 C.3     1  UNL1        0.0588
     13 C          64.5102   89.8940   14.4542 C.3     1  UNL1        0.0174
     14 N          63.0488   88.9294   12.5348 N.3     1  UNL1       -0.2661
     15 C          60.3263   88.7664   10.7466 C.ar    1  UNL1        0.1375
     16 C          59.4458   88.9802    9.5511 C.ar    1  UNL1        0.0509
     17 C          59.8264   88.3925    8.2246 C.ar    1  UNL1        0.0477
     18 C          61.0876   87.5910    8.0934 C.ar    1  UNL1        0.0142
     19 C          61.9681   87.3772    9.2889 C.ar    1  UNL1        0.0016
     20 C          61.5875   87.9649   10.6155 C.ar    1  UNL1        0.0301
     21 C          58.6496   88.9663   12.7211 C.3     1  UNL1        0.2525
     22 O          59.9457   89.3541   12.0731 O.3     1  UNL1       -0.4716
     23 N          58.9460   88.6062    7.0292 N.pl3   1  UNL1       -0.3317
     24 H          58.2589   87.9400    6.7985 H       1  UNL1        0.1468
     25 C          59.1124   89.8351    6.1852 C.3     1  UNL1        0.1014
     26 C          58.1797   90.8504    5.5944 C.3     1  UNL1        0.0933
     27 N          59.3479   91.5729    4.9917 N.3     1  UNL1       -0.2697
     28 C          60.2807   90.5576    5.5825 C.3     1  UNL1        0.0933
     29 C          59.5144   92.8018    4.1477 C.3     1  UNL1        0.0751
     30 C          60.0608   92.6869    2.7555 C.3     1  UNL1        0.0554
     31 C          61.5427   92.7232    2.5259 C.3     1  UNL1        0.1947
     32 F          62.4474   91.8330    3.3252 F       1  UNL1       -0.2343
     33 C          62.7493   90.3216   12.0633 C.3     1  UNL1        0.1054
     34 C          63.6880   91.0117   11.1186 C.3     1  UNL1        0.1486
     35 F          63.3031   90.3416    9.8330 F       1  UNL1       -0.2386
     36 C          64.7603   91.9346   10.6203 C.3     1  UNL1        0.0368
     37 C          64.3989   91.9216   12.0761 C.3     1  UNL1        0.0368
@<TRIPOS>BOND
     1    21    22    1
     2    22    15    1
     3    15    16   ar
     4    16    17   ar
     5    17    23    1
     6    23    25    1
     7    25    26    1
     8    26    27    1
     9    27    29    1
    10    29    30    1
    11    30    31    1
    12    31    32    1
    13    27    28    1
    14    17    18   ar
    15    18    19   ar
    16    19    20   ar
    17     1    20    1
    18     1     2    1
    19     2     3    2
    20     3     4    1
    21     4     5    2
    22     5     6    1
    23     6     7    2
    24     7     8    1
    25     8     9    2
    26     9    10    1
    27    10    11    1
    28    11    12    1
    29    12    13    1
    30    12    14    1
    31    14    33    1
    32    33    34    1
    33    34    35    1
    34    34    36    1
    35    36    37    1
    36    20    15   ar
    37    14     1    1
    38    37    34    1
    39    28    25    1
    40    10     2    1
    41     9     5    1
    42    23    24    1
@<TRIPOS>MOLECULE
*****
 37 42 0 0 0
SMALL
GASTEIGER

@<TRIPOS>ATOM
      1 C          62.6560   87.8808   11.9593 C.3     1  UNL1        0.1023
      2 C          63.3560   89.1199   12.4334 C.2     1  UNL1       -0.0217
      3 C          63.1304   90.4248   11.7292 C.2     1  UNL1       -0.0050
      4 C          63.8304   91.6639   12.2034 C.2     1  UNL1        0.0201
      5 C          64.7562   91.5978   13.3818 C.2     1  UNL1        0.1007
      6 N          65.5791   92.6452   14.0715 N.2     1  UNL1       -0.1482
      7 N          66.3134   91.9874   15.2021 N.2     1  UNL1       -0.1467
      8 C          65.9443   90.5336   15.2110 C.2     1  UNL1        0.1197
      9 C          64.9818   90.2928   14.0860 C.2     1  UNL1        0.0216
     10 C          64.2818   89.0538   13.6118 C.3     1  UNL1        0.0466
     11 C          64.5074   87.7488   14.3161 C.3     1  UNL1        0.0245
     12 C          63.8074   86.5098   13.8419 C.3     1  UNL1        0.0588
     13 C          64.0331   85.2047   14.5462 C.3     1  UNL1        0.0174
     14 N          62.8817   86.5758   12.6635 N.3     1  UNL1       -0.2661
     15 C          60.3857   88.5974   10.9190 C.ar    1  UNL1        0.1375
     16 C          59.4599   88.6635    9.7405 C.ar    1  UNL1        0.0509
     17 C          59.8787   88.0791    8.4241 C.ar    1  UNL1        0.0477
     18 C          61.2233   87.4285    8.2860 C.ar    1  UNL1        0.0142
     19 C          62.1490   87.3624    9.4644 C.ar    1  UNL1        0.0016
     20 C          61.7303   87.9469   10.7809 C.ar    1  UNL1        0.0301
     21 C          58.5460   89.0485   12.6972 C.3     1  UNL1        0.2525
     22 O          59.9669   89.1818   12.2354 O.3     1  UNL1       -0.4716
     23 N          58.9530   88.1451    7.2457 N.pl3   1  UNL1       -0.3317
     24 H          58.3665   87.3824    7.0371 H       1  UNL1        0.1468
     25 C          58.9208   89.3733    6.3852 C.3     1  UNL1        0.1014
     26 C          59.9549   90.2106    5.6927 C.3     1  UNL1        0.0933
     27 N          58.8753   91.1102    5.1682 N.3     1  UNL1       -0.2697
     28 C          57.8412   90.2729    5.8607 C.3     1  UNL1        0.0933
     29 C          58.8430   92.3384    4.3076 C.3     1  UNL1        0.0751
     30 C          59.9845   92.6349    3.3807 C.3     1  UNL1        0.0554
     31 C          59.7124   93.0913    1.9779 C.3     1  UNL1        0.1947
     32 F          60.1791   92.2647    0.8165 F       1  UNL1       -0.2343
     33 C          62.1816   85.3368   12.1894 C.3     1  UNL1        0.1054
     34 C          62.9494   84.2734   11.4617 C.3     1  UNL1        0.1486
     35 F          63.5028   85.0825   10.3263 F       1  UNL1       -0.2386
     36 C          63.5251   82.9290   11.1283 C.3     1  UNL1        0.0368
     37 C          62.6627   83.0950   12.3443 C.3     1  UNL1        0.0368
@<TRIPOS>BOND
     1    21    22    1
     2    22    15    1
     3    15    16   ar
     4    16    17   ar
     5    17    23    1
     6    23    25    1
     7    25    26    1
     8    26    27    1
     9    27    29    1
    10    29    30    1
    11    30    31    1
    12    31    32    1
    13    27    28    1
    14    17    18   ar
    15    18    19   ar
    16    19    20   ar
    17     1    20    1
    18     1     2    1
    19     2     3    2
    20     3     4    1
    21     4     5    2
    22     5     6    1
    23     6     7    2
    24     7     8    1
    25     8     9    2
    26     9    10    1
    27    10    11    1
    28    11    12    1
    29    12    13    1
    30    12    14    1
    31    14    33    1
    32    33    34    1
    33    34    35    1
    34    34    36    1
    35    36    37    1
    36    20    15   ar
    37    14     1    1
    38    37    34    1
    39    28    25    1
    40    10     2    1
    41     9     5    1
    42    23    24    1
@<TRIPOS>MOLECULE
*****
 37 42 0 0 0
SMALL
GASTEIGER

@<TRIPOS>ATOM
      1 C          62.3657   87.5700   11.7833 C.3     1  UNL1        0.1023
      2 C          62.6903   86.1644   12.1945 C.2     1  UNL1       -0.0217
      3 C          62.1273   85.0081   11.4227 C.2     1  UNL1       -0.0050
      4 C          62.4520   83.6025   11.8340 C.2     1  UNL1        0.0201
      5 C          63.3397   83.3534   13.0171 C.2     1  UNL1        0.1007
      6 N          63.8314   82.0875   13.6540 N.2     1  UNL1       -0.1482
      7 N          64.6984   82.4616   14.8196 N.2     1  UNL1       -0.1467
      8 C          64.7425   83.9586   14.9030 C.2     1  UNL1        0.1197
      9 C          63.9028   84.5098   13.7889 C.2     1  UNL1        0.0216
     10 C          63.5781   85.9153   13.3777 C.3     1  UNL1        0.0466
     11 C          64.1411   87.0717   14.1495 C.3     1  UNL1        0.0245
     12 C          63.8165   88.4772   13.7382 C.3     1  UNL1        0.0588
     13 C          64.3796   89.6335   14.5102 C.3     1  UNL1        0.0174
     14 N          62.9287   88.7263   12.5551 N.3     1  UNL1       -0.2661
     15 C          61.8096   87.2068    9.2716 C.ar    1  UNL1        0.1375
     16 C          60.9218   87.4559    8.0883 C.ar    1  UNL1        0.0509
     17 C          59.7025   88.3172    8.2337 C.ar    1  UNL1        0.0477
     18 C          59.3708   88.9296    9.5623 C.ar    1  UNL1        0.0142
     19 C          60.2585   88.6805   10.7455 C.ar    1  UNL1        0.0016
     20 C          61.4779   87.8191   10.6001 C.ar    1  UNL1        0.0301
     21 C          63.0480   85.2370    8.1157 C.3     1  UNL1        0.2525
     22 O          63.0289   86.3454    9.1261 O.3     1  UNL1       -0.4716
     23 N          58.8147   88.5663    7.0506 N.pl3   1  UNL1       -0.3317
     24 H          58.1021   87.9252    6.8263 H       1  UNL1        0.1468
     25 C          59.0128   89.7923    6.2092 C.3     1  UNL1        0.1014
     26 C          58.1059   90.8288    5.6150 C.3     1  UNL1        0.0933
     27 N          59.2929   91.5260    5.0193 N.3     1  UNL1       -0.2697
     28 C          60.1999   90.4894    5.6135 C.3     1  UNL1        0.0933
     29 C          59.4911   92.7519    4.1779 C.3     1  UNL1        0.0751
     30 C          60.3363   92.6836    2.9406 C.3     1  UNL1        0.0554
     31 C          59.7658   93.1040    1.6185 C.3     1  UNL1        0.1947
     32 F          59.8158   92.1671    0.4482 F       1  UNL1       -0.2343
     33 C          62.6041   90.1319   12.1438 C.3     1  UNL1        0.1054
     34 C          63.5956   90.9288   11.3492 C.3     1  UNL1        0.1486
     35 F          64.6466   91.1545   12.3952 F       1  UNL1       -0.2386
     36 C          64.2222   91.6474   10.1911 C.3     1  UNL1        0.0368
     37 C          62.8889   90.9798   10.0270 C.3     1  UNL1        0.0368
@<TRIPOS>BOND
     1    21    22    1
     2    22    15    1
     3    15    16   ar
     4    16    17   ar
     5    17    23    1
     6    23    25    1
     7    25    26    1
     8    26    27    1
     9    27    29    1
    10    29    30    1
    11    30    31    1
    12    31    32    1
    13    27    28    1
    14    17    18   ar
    15    18    19   ar
    16    19    20   ar
    17     1    20    1
    18     1     2    1
    19     2     3    2
    20     3     4    1
    21     4     5    2
    22     5     6    1
    23     6     7    2
    24     7     8    1
    25     8     9    2
    26     9    10    1
    27    10    11    1
    28    11    12    1
    29    12    13    1
    30    12    14    1
    31    14    33    1
    32    33    34    1
    33    34    35    1
    34    34    36    1
    35    36    37    1
    36    20    15   ar
    37    14     1    1
    38    37    34    1
    39    28    25    1
    40    10     2    1
    41     9     5    1
    42    23    24    1
@<TRIPOS>MOLECULE
*****
 37 42 0 0 0
SMALL
GASTEIGER

@<TRIPOS>ATOM
      1 C          63.0872   88.1454   12.2211 C.3     1  UNL1        0.1023
      2 C          63.4529   86.9309   13.0219 C.2     1  UNL1       -0.0217
      3 C          64.4726   87.0337   14.1171 C.2     1  UNL1       -0.0050
      4 C          64.8383   85.8191   14.9179 C.2     1  UNL1        0.0201
      5 C          64.1842   84.5018   14.6234 C.2     1  UNL1        0.1007
      6 N          64.3410   83.1433   15.2398 N.2     1  UNL1       -0.1482
      7 N          63.4182   82.2009   14.5254 N.2     1  UNL1       -0.1467
      8 C          62.6910   82.9770   13.4676 C.2     1  UNL1        0.1197
      9 C          63.1645   84.3990   13.5281 C.2     1  UNL1        0.0216
     10 C          62.7988   85.6135   12.7274 C.3     1  UNL1        0.0466
     11 C          61.7791   85.5107   11.6321 C.3     1  UNL1        0.0245
     12 C          61.4135   86.7253   10.8314 C.3     1  UNL1        0.0588
     13 C          60.3937   86.6224    9.7361 C.3     1  UNL1        0.0174
     14 N          62.0675   88.0426   11.1259 N.3     1  UNL1       -0.2661
     15 C          63.9115   89.9146   13.9359 C.ar    1  UNL1        0.1375
     16 C          64.5656   91.2321   14.2305 C.ar    1  UNL1        0.0509
     17 C          65.0494   92.0975   13.1050 C.ar    1  UNL1        0.0477
     18 C          64.8791   91.6457   11.6847 C.ar    1  UNL1        0.0142
     19 C          64.2250   90.3284   11.3902 C.ar    1  UNL1        0.0016
     20 C          63.7412   89.4628   12.5157 C.ar    1  UNL1        0.0301
     21 C          63.2103   89.6409   16.4225 C.3     1  UNL1        0.2525
     22 O          63.4278   89.0491   15.0614 O.3     1  UNL1       -0.4716
     23 N          65.7034   93.4149   13.3996 N.pl3   1  UNL1       -0.3317
     24 H          65.8420   93.6980   14.3322 H       1  UNL1        0.1468
     25 C          66.1464   94.3008   12.2731 C.3     1  UNL1        0.1014
     26 C          66.4297   95.7663   12.1247 C.3     1  UNL1        0.0933
     27 N          66.7728   95.5538   10.6800 N.3     1  UNL1       -0.2697
     28 C          66.4894   94.0883   10.8284 C.3     1  UNL1        0.0933
     29 C          67.2157   96.4397    9.5535 C.3     1  UNL1        0.0751
     30 C          66.8881   96.0717    8.1367 C.3     1  UNL1        0.0554
     31 C          65.8552   96.8519    7.3788 C.3     1  UNL1        0.1947
     32 F          65.2978   96.3098    6.0961 F       1  UNL1       -0.2343
     33 C          61.7018   89.2572   10.3252 C.3     1  UNL1        0.1054
     34 C          60.3940   89.9502   10.5685 C.3     1  UNL1        0.1486
     35 F          59.8942   90.0657    9.1590 F       1  UNL1       -0.2386
     36 C          59.2597   90.6031   11.3014 C.3     1  UNL1        0.0368
     37 C          60.4396   90.0753   12.0626 C.3     1  UNL1        0.0368
@<TRIPOS>BOND
     1    21    22    1
     2    22    15    1
     3    15    16   ar
     4    16    17   ar
     5    17    23    1
     6    23    25    1
     7    25    26    1
     8    26    27    1
     9    27    29    1
    10    29    30    1
    11    30    31    1
    12    31    32    1
    13    27    28    1
    14    17    18   ar
    15    18    19   ar
    16    19    20   ar
    17     1    20    1
    18     1     2    1
    19     2     3    2
    20     3     4    1
    21     4     5    2
    22     5     6    1
    23     6     7    2
    24     7     8    1
    25     8     9    2
    26     9    10    1
    27    10    11    1
    28    11    12    1
    29    12    13    1
    30    12    14    1
    31    14    33    1
    32    33    34    1
    33    34    35    1
    34    34    36    1
    35    36    37    1
    36    20    15   ar
    37    14     1    1
    38    37    34    1
    39    28    25    1
    40    10     2    1
    41     9     5    1
    42    23    24    1
@<TRIPOS>MOLECULE
*****
 37 42 0 0 0
SMALL
GASTEIGER

@<TRIPOS>ATOM
      1 C          62.6138   88.1620   11.7725 C.3     1  UNL1        0.1023
      2 C          63.3582   89.3697   12.2598 C.2     1  UNL1       -0.0217
      3 C          63.1870   90.6875   11.5642 C.2     1  UNL1       -0.0050
      4 C          63.9314   91.8952   12.0516 C.2     1  UNL1        0.0201
      5 C          64.8470   91.7849   13.2345 C.2     1  UNL1        0.1007
      6 N          65.7056   92.7948   13.9367 N.2     1  UNL1       -0.1482
      7 N          66.4074   92.1010   15.0663 N.2     1  UNL1       -0.1467
      8 C          65.9826   90.6624   15.0623 C.2     1  UNL1        0.1197
      9 C          65.0182   90.4670   13.9302 C.2     1  UNL1        0.0216
     10 C          64.2738   89.2594   13.4428 C.3     1  UNL1        0.0466
     11 C          64.4451   87.9415   14.1384 C.3     1  UNL1        0.0245
     12 C          63.7007   86.7339   13.6511 C.3     1  UNL1        0.0588
     13 C          63.8720   85.4161   14.3468 C.3     1  UNL1        0.0174
     14 N          62.7851   86.8442   12.4681 N.3     1  UNL1       -0.2661
     15 C          61.9033   87.3855    9.3972 C.ar    1  UNL1        0.1375
     16 C          60.9876   87.4957    8.2141 C.ar    1  UNL1        0.0509
     17 C          59.8670   88.4927    8.2234 C.ar    1  UNL1        0.0477
     18 C          59.6619   89.3795    9.4157 C.ar    1  UNL1        0.0142
     19 C          60.5775   89.2692   10.5987 C.ar    1  UNL1        0.0016
     20 C          61.6982   88.2722   10.5895 C.ar    1  UNL1        0.0301
     21 C          63.1155   85.3732    8.2875 C.3     1  UNL1        0.2525
     22 O          63.0240   86.3885    9.3879 O.3     1  UNL1       -0.4716
     23 N          58.9514   88.6029    7.0404 N.pl3   1  UNL1       -0.3317
     24 H          58.3032   87.8865    6.8512 H       1  UNL1        0.1468
     25 C          59.0234   89.8048    6.1457 C.3     1  UNL1        0.1014
     26 C          58.0210   90.7630    5.5740 C.3     1  UNL1        0.0933
     27 N          59.1252   91.5044    4.8805 N.3     1  UNL1       -0.2697
     28 C          60.1276   90.5461    5.4522 C.3     1  UNL1        0.0933
     29 C          59.1973   92.7062    3.9858 C.3     1  UNL1        0.0751
     30 C          59.8842   92.6109    2.6557 C.3     1  UNL1        0.0554
     31 C          61.3741   92.7616    2.5685 C.3     1  UNL1        0.1947
     32 F          62.2692   91.7821    3.2681 F       1  UNL1       -0.2343
     33 C          62.0407   85.6365   11.9808 C.3     1  UNL1        0.1054
     34 C          62.4841   84.2647   12.3946 C.3     1  UNL1        0.1486
     35 F          61.7762   84.1484   13.7119 F       1  UNL1       -0.2386
     36 C          63.1733   82.9331   12.3510 C.3     1  UNL1        0.0368
     37 C          63.3459   83.9044   11.2210 C.3     1  UNL1        0.0368
@<TRIPOS>BOND
     1    21    22    1
     2    22    15    1
     3    15    16   ar
     4    16    17   ar
     5    17    23    1
     6    23    25    1
     7    25    26    1
     8    26    27    1
     9    27    29    1
    10    29    30    1
    11    30    31    1
    12    31    32    1
    13    27    28    1
    14    17    18   ar
    15    18    19   ar
    16    19    20   ar
    17     1    20    1
    18     1     2    1
    19     2     3    2
    20     3     4    1
    21     4     5    2
    22     5     6    1
    23     6     7    2
    24     7     8    1
    25     8     9    2
    26     9    10    1
    27    10    11    1
    28    11    12    1
    29    12    13    1
    30    12    14    1
    31    14    33    1
    32    33    34    1
    33    34    35    1
    34    34    36    1
    35    36    37    1
    36    20    15   ar
    37    14     1    1
    38    37    34    1
    39    28    25    1
    40    10     2    1
    41     9     5    1
    42    23    24    1
