@<TRIPOS>MOLECULE
*****
 54 58 0 0 0
SMALL
GASTEIGER

@<TRIPOS>ATOM
      1 N          64.6255   92.0961   11.2361 N.am    1  UNL1       -0.2770
      2 C          64.4745   92.0804   12.7285 C.2     1  UNL1        0.2270
      3 O          63.1547   91.7226   13.3450 O.2     1  UNL1       -0.2748
      4 C          65.6432   92.4226   13.6042 C.3     1  UNL1        0.0964
      5 C          66.5355   93.5745   13.2480 C.3     1  UNL1        0.0780
      6 N          67.7043   93.9167   14.1237 N.3     1  UNL1       -0.2970
      7 C          67.9808   93.1069   15.3557 C.3     1  UNL1        0.0689
      8 C          67.0885   91.9549   15.7120 C.3     1  UNL1        0.0220
      9 C          65.9197   91.6128   14.8362 C.3     1  UNL1        0.0337
     10 H          67.5713   94.8808   14.4288 H       1  UNL1        0.1233
     11 C          65.0275   90.4608   15.1925 C.ar    1  UNL1       -0.0217
     12 C          63.9203   90.6493   16.1868 C.ar    1  UNL1       -0.0012
     13 C          63.0280   89.4974   16.5430 C.ar    1  UNL1        0.0366
     14 C          63.2429   88.1570   15.9050 C.ar    1  UNL1        0.1387
     15 C          64.3501   87.9685   14.9107 C.ar    1  UNL1        0.0366
     16 C          65.2424   89.1204   14.5544 C.ar    1  UNL1       -0.0012
     17 O          62.3507   87.0051   16.2612 O.3     1  UNL1       -0.4714
     18 C          62.9359   85.6398   16.4704 C.3     1  UNL1        0.2525
     19 C          62.2028   84.4264   15.9803 C.3     1  UNL1        0.2525
     20 O          62.9531   83.1570   15.7057 O.3     1  UNL1       -0.4697
     21 C          63.1931   82.7186   14.2914 C.ar    1  UNL1        0.1596
     22 C          64.3860   83.2304   13.5398 C.ar    1  UNL1        0.0921
     23 CL         65.3389   84.1807   14.2024 Cl      1  UNL1       -0.0791
     24 C          64.6261   82.7920   12.1254 C.ar    1  UNL1        0.0103
     25 C          63.6732   81.8418   11.4628 C.ar    1  UNL1       -0.0200
     26 C          63.9132   81.4034   10.0486 C.3     1  UNL1        0.0311
     27 C          62.4803   81.3299   12.2145 C.ar    1  UNL1        0.0103
     28 C          62.2403   81.7683   13.6288 C.ar    1  UNL1        0.0921
     29 CL         61.0474   81.2564   14.3805 Cl      1  UNL1       -0.0791
     30 C          65.9453   92.4539   10.6196 C.3     1  UNL1        0.0758
     31 C          67.3741   92.1106   10.3186 C.3     1  UNL1        0.0215
     32 C          66.8024   93.4168    9.8527 C.3     1  UNL1        0.0215
     33 C          63.4567   91.7539   10.3604 C.3     1  UNL1        0.1201
     34 C          62.6322   88.0676   11.5775 C.ar    1  UNL1       -0.0194
     35 C          63.3450   89.3754   11.3997 C.ar    1  UNL1       -0.0067
     36 C          62.7439   90.4461   10.5381 C.ar    1  UNL1        0.0004
     37 C          61.4302   90.2090    9.8542 C.ar    1  UNL1        0.0343
     38 C          60.7174   88.9012   10.0319 C.ar    1  UNL1        0.1380
     39 C          61.3184   87.8305   10.8936 C.ar    1  UNL1        0.0326
     40 O          59.4036   88.6640    9.3480 O.3     1  UNL1       -0.4755
     41 C          59.3633   87.9583    8.0251 C.3     1  UNL1        0.2054
     42 C          58.8742   88.6802    6.8045 C.3     1  UNL1        0.0477
     43 C          59.7030   89.7729    6.1970 C.3     1  UNL1        0.0090
     44 C          59.0447   90.8545    5.3928 C.3     1  UNL1        0.0322
     45 C          60.3850   91.2859    4.8758 C.3     1  UNL1        0.0056
     46 C          57.7043   90.4231    5.9097 C.3     1  UNL1        0.0056
     47 C          58.3863   91.9361    4.5885 C.2     1  UNL1        0.0496
     48 O          59.1841   92.7168    3.5866 O.co2   1  UNL1       -0.5492
     49 O          56.9302   92.2370    4.7863 O.co2   1  UNL1       -0.5492
     50 C          63.2332   86.9969   12.4391 C.3     1  UNL1        0.0290
     51 C          62.7513   85.5813   12.3219 C.3     1  UNL1        0.0367
     52 C          62.2102   85.0789   11.0162 C.3     1  UNL1        0.1426
     53 C          62.7321   85.5172    8.5091 C.3     1  UNL1        0.1741
     54 O          63.1214   84.9311    9.8338 O.3     1  UNL1       -0.3511
@<TRIPOS>UNITY_ATOM_ATTR
48 1
charge -1
@<TRIPOS>BOND
     1    53    54    1
     2    54    52    1
     3    52    51    1
     4    51    50    1
     5    50    34    1
     6    34    35   ar
     7    35    36   ar
     8    36    33    1
     9    33     1    1
    10     1     2   am
    11     2     3    2
    12     4     2    1
    13     4     5    1
    14     5     6    1
    15     6     7    1
    16     7     8    1
    17     8     9    1
    18     9    11    1
    19    11    12   ar
    20    12    13   ar
    21    13    14   ar
    22    14    17    1
    23    17    18    1
    24    18    19    1
    25    19    20    1
    26    20    21    1
    27    21    22   ar
    28    22    23    1
    29    22    24   ar
    30    24    25   ar
    31    25    26    1
    32    25    27   ar
    33    27    28   ar
    34    28    29    1
    35    14    15   ar
    36    15    16   ar
    37     1    30    1
    38    30    31    1
    39    31    32    1
    40    36    37   ar
    41    37    38   ar
    42    38    40    1
    43    40    41    1
    44    41    42    1
    45    42    43    1
    46    43    44    1
    47    44    45    1
    48    44    46    1
    49    44    47    1
    50    47    48   ar
    51    47    49   ar
    52    38    39   ar
    53    39    34   ar
    54     9     4    1
    55    16    11   ar
    56    32    30    1
    57    28    21   ar
    58     6    10    1
@<TRIPOS>MOLECULE
*****
 54 58 0 0 0
SMALL
GASTEIGER

@<TRIPOS>ATOM
      1 N          64.9500   92.2174   11.3407 N.am    1  UNL1       -0.2770
      2 C          64.7513   92.1775   12.8270 C.2     1  UNL1        0.2270
      3 O          63.3937   91.8869   13.3946 O.2     1  UNL1       -0.2748
      4 C          65.9103   92.4284   13.7456 C.3     1  UNL1        0.0964
      5 C          66.8677   93.5465   13.4571 C.3     1  UNL1        0.0780
      6 N          68.0266   93.7973   14.3757 N.3     1  UNL1       -0.2970
      7 C          68.2282   92.9301   15.5828 C.3     1  UNL1        0.0689
      8 C          67.2708   91.8119   15.8714 C.3     1  UNL1        0.0220
      9 C          66.1119   91.5611   14.9528 C.3     1  UNL1        0.0337
     10 H          67.9326   94.7551   14.7136 H       1  UNL1        0.1233
     11 C          65.1545   90.4430   15.2413 C.ar    1  UNL1       -0.0217
     12 C          65.3350   89.1106   14.5762 C.ar    1  UNL1       -0.0012
     13 C          64.3776   87.9925   14.8647 C.ar    1  UNL1        0.0366
     14 C          63.2397   88.2067   15.8183 C.ar    1  UNL1        0.1387
     15 C          63.0592   89.5390   16.4833 C.ar    1  UNL1        0.0366
     16 C          64.0166   90.6572   16.1948 C.ar    1  UNL1       -0.0012
     17 O          62.2824   87.0886   16.1068 O.3     1  UNL1       -0.4714
     18 C          62.8009   85.7533   16.5519 C.3     1  UNL1        0.2525
     19 C          62.1662   84.4940   16.0408 C.3     1  UNL1        0.2525
     20 O          63.0189   83.3048   15.7112 O.3     1  UNL1       -0.4697
     21 C          63.2729   82.9379   14.2790 C.ar    1  UNL1        0.1596
     22 C          62.3454   81.9959   13.5702 C.ar    1  UNL1        0.0921
     23 CL         61.1639   81.4208   14.2935 Cl      1  UNL1       -0.0791
     24 C          62.5994   81.6291   12.1381 C.ar    1  UNL1        0.0103
     25 C          63.7810   82.2042   11.4148 C.ar    1  UNL1       -0.0200
     26 C          64.0351   81.8373    9.9828 C.3     1  UNL1        0.0311
     27 C          64.7085   83.1462   12.1237 C.ar    1  UNL1        0.0103
     28 C          64.4545   83.5130   13.5557 C.ar    1  UNL1        0.0921
     29 CL         65.3820   84.4550   14.2646 Cl      1  UNL1       -0.0791
     30 C          66.3077   92.5081   10.7731 C.3     1  UNL1        0.0758
     31 C          67.2438   93.4328   10.0528 C.3     1  UNL1        0.0215
     32 C          67.7231   92.0870   10.5101 C.3     1  UNL1        0.0215
     33 C          63.7911   91.9666   10.4221 C.3     1  UNL1        0.1201
     34 C          60.9293   89.2691    9.8891 C.ar    1  UNL1       -0.0194
     35 C          61.7281   90.5322    9.7610 C.ar    1  UNL1       -0.0067
     36 C          62.9923   90.7034   10.5501 C.ar    1  UNL1        0.0004
     37 C          63.4576   89.6115   11.4673 C.ar    1  UNL1        0.0343
     38 C          62.6588   88.3484   11.5953 C.ar    1  UNL1        0.1380
     39 C          61.3947   88.1772   10.8062 C.ar    1  UNL1        0.0326
     40 O          63.1241   87.2564   12.5125 O.3     1  UNL1       -0.4755
     41 C          62.6577   85.8471   12.2978 C.3     1  UNL1        0.2054
     42 C          61.9769   85.4694   11.0156 C.3     1  UNL1        0.0477
     43 C          62.7677   85.3821    9.7440 C.3     1  UNL1        0.0090
     44 C          62.0604   85.2347    8.4296 C.3     1  UNL1        0.0322
     45 C          63.3382   84.7738    7.7936 C.3     1  UNL1        0.0056
     46 C          60.7825   85.6957    9.0655 C.3     1  UNL1        0.0056
     47 C          61.3529   85.0874    7.1150 C.2     1  UNL1        0.0496
     48 O          62.0841   84.5347    5.9277 O.co2   1  UNL1       -0.5492
     49 O          59.9143   85.4927    6.9880 O.co2   1  UNL1       -0.5492
     50 C          59.6652   89.0979    9.1000 C.3     1  UNL1        0.0290
     51 C          59.7315   88.8433    7.6233 C.3     1  UNL1        0.0367
     52 C          58.8718   89.6383    6.6858 C.3     1  UNL1        0.1426
     53 C          58.7623   91.5183    4.8959 C.3     1  UNL1        0.1741
     54 O          59.4971   90.3819    5.5429 O.3     1  UNL1       -0.3511
@<TRIPOS>UNITY_ATOM_ATTR
48 1
charge -1
@<TRIPOS>BOND
     1    53    54    1
     2    54    52    1
     3    52    51    1
     4    51    50    1
     5    50    34    1
     6    34    35   ar
     7    35    36   ar
     8    36    33    1
     9    33     1    1
    10     1     2   am
    11     2     3    2
    12     4     2    1
    13     4     5    1
    14     5     6    1
    15     6     7    1
    16     7     8    1
    17     8     9    1
    18     9    11    1
    19    11    12   ar
    20    12    13   ar
    21    13    14   ar
    22    14    17    1
    23    17    18    1
    24    18    19    1
    25    19    20    1
    26    20    21    1
    27    21    22   ar
    28    22    23    1
    29    22    24   ar
    30    24    25   ar
    31    25    26    1
    32    25    27   ar
    33    27    28   ar
    34    28    29    1
    35    14    15   ar
    36    15    16   ar
    37     1    30    1
    38    30    31    1
    39    31    32    1
    40    36    37   ar
    41    37    38   ar
    42    38    40    1
    43    40    41    1
    44    41    42    1
    45    42    43    1
    46    43    44    1
    47    44    45    1
    48    44    46    1
    49    44    47    1
    50    47    48   ar
    51    47    49   ar
    52    38    39   ar
    53    39    34   ar
    54     9     4    1
    55    16    11   ar
    56    32    30    1
    57    28    21   ar
    58     6    10    1
@<TRIPOS>MOLECULE
*****
 54 58 0 0 0
SMALL
GASTEIGER

@<TRIPOS>ATOM
      1 N          64.9936   92.0494   11.2960 N.am    1  UNL1       -0.2770
      2 C          64.6832   92.1533   12.7599 C.2     1  UNL1        0.2270
      3 O          63.3194   91.7863   13.2652 O.2     1  UNL1       -0.2748
      4 C          65.7366   92.6241   13.7184 C.3     1  UNL1        0.0964
      5 C          66.6056   93.7937   13.3625 C.3     1  UNL1        0.0780
      6 N          67.6590   94.2645   14.3210 N.3     1  UNL1       -0.2970
      7 C          67.8433   93.5657   15.6354 C.3     1  UNL1        0.0689
      8 C          66.9742   92.3960   15.9914 C.3     1  UNL1        0.0220
      9 C          65.9209   91.9252   15.0328 C.3     1  UNL1        0.0337
     10 H          67.4494   95.2400   14.5331 H       1  UNL1        0.1233
     11 C          65.0518   90.7556   15.3887 C.ar    1  UNL1       -0.0217
     12 C          64.0322   90.8838   16.4814 C.ar    1  UNL1       -0.0012
     13 C          63.1631   89.7141   16.8373 C.ar    1  UNL1        0.0366
     14 C          63.3137   88.4163   16.1005 C.ar    1  UNL1        0.1387
     15 C          64.3332   88.2880   15.0078 C.ar    1  UNL1        0.0366
     16 C          65.2024   89.4577   14.6519 C.ar    1  UNL1       -0.0012
     17 O          62.4446   87.2467   16.4564 O.3     1  UNL1       -0.4714
     18 C          63.0477   85.8809   16.6016 C.3     1  UNL1        0.2525
     19 C          62.3290   84.6819   16.0577 C.3     1  UNL1        0.2525
     20 O          63.0880   83.4221   15.7636 O.3     1  UNL1       -0.4697
     21 C          63.3261   83.0042   14.3427 C.ar    1  UNL1        0.1596
     22 C          64.4924   83.5623   13.5823 C.ar    1  UNL1        0.0921
     23 CL         65.4207   84.5381   14.2426 Cl      1  UNL1       -0.0791
     24 C          64.7305   83.1444   12.1614 C.ar    1  UNL1        0.0103
     25 C          63.8022   82.1686   11.5010 C.ar    1  UNL1       -0.0200
     26 C          64.0403   81.7508   10.0802 C.3     1  UNL1        0.0311
     27 C          62.6359   81.6106   12.2616 C.ar    1  UNL1        0.0103
     28 C          62.3978   82.0284   13.6823 C.ar    1  UNL1        0.0921
     29 CL         61.2315   81.4704   14.4429 Cl      1  UNL1       -0.0791
     30 C          66.3574   92.4164   10.7907 C.3     1  UNL1        0.0758
     31 C          67.8135   92.0938   10.6303 C.3     1  UNL1        0.0215
     32 C          67.2635   93.3744   10.0759 C.3     1  UNL1        0.0215
     33 C          63.9403   91.5786   10.3375 C.3     1  UNL1        0.1201
     34 C          60.4592   89.8568   11.1546 C.ar    1  UNL1       -0.0194
     35 C          61.4676   90.8780   10.7185 C.ar    1  UNL1       -0.0067
     36 C          62.9319   90.5573   10.7737 C.ar    1  UNL1        0.0004
     37 C          63.3878   89.2154   11.2650 C.ar    1  UNL1        0.0343
     38 C          62.3794   88.1942   11.7012 C.ar    1  UNL1        0.1380
     39 C          60.9151   88.5149   11.6459 C.ar    1  UNL1        0.0326
     40 O          62.8352   86.8523   12.1925 O.3     1  UNL1       -0.4755
     41 C          62.2600   85.6009   11.5983 C.3     1  UNL1        0.2054
     42 C          62.7363   85.1183   10.2603 C.3     1  UNL1        0.0477
     43 C          62.5971   85.9973    9.0529 C.3     1  UNL1        0.0090
     44 C          61.5467   85.6984    8.0247 C.3     1  UNL1        0.0322
     45 C          60.5711   86.5592    8.7711 C.3     1  UNL1        0.0056
     46 C          62.5223   84.8375    7.2783 C.3     1  UNL1        0.0056
     47 C          60.4963   85.3995    6.9964 C.2     1  UNL1        0.0496
     48 O          60.7324   84.3294    5.9721 O.co2   1  UNL1       -0.5492
     49 O          59.2097   86.1706    6.9925 O.co2   1  UNL1       -0.5492
     50 C          58.9949   90.1775   11.0994 C.3     1  UNL1        0.0290
     51 C          58.1366   89.9753   12.3127 C.3     1  UNL1        0.0367
     52 C          58.1913   88.6772   13.0624 C.3     1  UNL1        0.1426
     53 C          55.7129   87.8994   13.1138 C.3     1  UNL1        0.1741
     54 O          56.9938   88.2046   13.8323 O.3     1  UNL1       -0.3511
@<TRIPOS>UNITY_ATOM_ATTR
48 1
charge -1
@<TRIPOS>BOND
     1    53    54    1
     2    54    52    1
     3    52    51    1
     4    51    50    1
     5    50    34    1
     6    34    35   ar
     7    35    36   ar
     8    36    33    1
     9    33     1    1
    10     1     2   am
    11     2     3    2
    12     4     2    1
    13     4     5    1
    14     5     6    1
    15     6     7    1
    16     7     8    1
    17     8     9    1
    18     9    11    1
    19    11    12   ar
    20    12    13   ar
    21    13    14   ar
    22    14    17    1
    23    17    18    1
    24    18    19    1
    25    19    20    1
    26    20    21    1
    27    21    22   ar
    28    22    23    1
    29    22    24   ar
    30    24    25   ar
    31    25    26    1
    32    25    27   ar
    33    27    28   ar
    34    28    29    1
    35    14    15   ar
    36    15    16   ar
    37     1    30    1
    38    30    31    1
    39    31    32    1
    40    36    37   ar
    41    37    38   ar
    42    38    40    1
    43    40    41    1
    44    41    42    1
    45    42    43    1
    46    43    44    1
    47    44    45    1
    48    44    46    1
    49    44    47    1
    50    47    48   ar
    51    47    49   ar
    52    38    39   ar
    53    39    34   ar
    54     9     4    1
    55    16    11   ar
    56    32    30    1
    57    28    21   ar
    58     6    10    1
@<TRIPOS>MOLECULE
*****
 54 58 0 0 0
SMALL
GASTEIGER

@<TRIPOS>ATOM
      1 N          62.6941   85.2387    9.2412 N.am    1  UNL1       -0.2770
      2 C          61.7448   86.2069    9.8828 C.2     1  UNL1        0.2270
      3 O          61.8546   86.5051   11.3487 O.2     1  UNL1       -0.2748
      4 C          60.6857   86.8767    9.0584 C.3     1  UNL1        0.0964
      5 C          59.8024   86.0586    8.1637 C.3     1  UNL1        0.0780
      6 N          58.7434   86.7284    7.3393 N.3     1  UNL1       -0.2970
      7 C          58.5675   88.2164    7.4096 C.3     1  UNL1        0.0689
      8 C          59.4508   89.0346    8.3043 C.3     1  UNL1        0.0220
      9 C          60.5099   88.3648    9.1287 C.3     1  UNL1        0.0337
     10 H          57.8522   86.3135    7.6113 H       1  UNL1        0.1233
     11 C          61.3932   89.1829   10.0233 C.ar    1  UNL1       -0.0217
     12 C          62.6841   89.7382    9.4986 C.ar    1  UNL1       -0.0012
     13 C          63.5674   90.5563   10.3932 C.ar    1  UNL1        0.0366
     14 C          63.1598   90.8192   11.8127 C.ar    1  UNL1        0.1387
     15 C          61.8690   90.2639   12.3374 C.ar    1  UNL1        0.0366
     16 C          60.9856   89.4458   11.4428 C.ar    1  UNL1       -0.0012
     17 O          64.0431   91.6373   12.7073 O.3     1  UNL1       -0.4714
     18 C          64.9376   92.6887   12.1203 C.3     1  UNL1        0.2525
     19 C          66.0833   93.2315   12.9218 C.3     1  UNL1        0.2525
     20 O          67.1691   94.0134   12.2437 O.3     1  UNL1       -0.4697
     21 C          66.8948   94.7023   10.9398 C.ar    1  UNL1        0.1596
     22 C          67.2164   94.0148    9.6461 C.ar    1  UNL1        0.0921
     23 CL         67.8122   92.6382    9.6562 Cl      1  UNL1       -0.0791
     24 C          66.9421   94.7038    8.3421 C.ar    1  UNL1        0.0103
     25 C          66.3462   96.0803    8.3320 C.ar    1  UNL1       -0.0200
     26 C          66.0719   96.7693    7.0282 C.3     1  UNL1        0.0311
     27 C          66.0247   96.7679    9.6259 C.ar    1  UNL1        0.0103
     28 C          66.2989   96.0789   10.9297 C.ar    1  UNL1        0.0921
     29 CL         65.9774   96.7664   12.2235 Cl      1  UNL1       -0.0791
     30 C          62.5843   84.9404    7.7753 C.3     1  UNL1        0.0758
     31 C          61.7719   84.4842    6.5998 C.3     1  UNL1        0.0215
     32 C          63.2064   84.8800    6.4117 C.3     1  UNL1        0.0215
     33 C          63.7532   84.5688   10.0656 C.3     1  UNL1        0.1201
     34 C          62.9651   80.7459   10.7825 C.ar    1  UNL1       -0.0194
     35 C          63.2785   82.0145   10.0462 C.ar    1  UNL1       -0.0067
     36 C          63.4398   83.3001   10.8020 C.ar    1  UNL1        0.0004
     37 C          63.2876   83.3171   12.2941 C.ar    1  UNL1        0.0343
     38 C          62.9742   82.0484   13.0305 C.ar    1  UNL1        0.1380
     39 C          62.8130   80.7628   12.2746 C.ar    1  UNL1        0.0326
     40 O          62.8221   82.0653   14.5227 O.3     1  UNL1       -0.4755
     41 C          62.6195   83.3663   15.2412 C.3     1  UNL1        0.2054
     42 C          63.7421   84.3574   15.3290 C.3     1  UNL1        0.0477
     43 C          63.7137   85.4321   16.3750 C.3     1  UNL1        0.0090
     44 C          63.6583   86.8744   15.9669 C.3     1  UNL1        0.0322
     45 C          64.5032   86.5672   14.7663 C.3     1  UNL1        0.0056
     46 C          62.8133   87.1816   17.1676 C.3     1  UNL1        0.0056
     47 C          63.6029   88.3169   15.5590 C.2     1  UNL1        0.0496
     48 O          64.5572   88.8418   14.5276 O.co2   1  UNL1       -0.5492
     49 O          62.5931   89.2343   16.1824 O.co2   1  UNL1       -0.5492
     50 C          62.8038   79.4603   10.0267 C.3     1  UNL1        0.0290
     51 C          62.7702   78.1552   10.7653 C.3     1  UNL1        0.0367
     52 C          63.3621   76.9256   10.1427 C.3     1  UNL1        0.1426
     53 C          65.1601   75.8096    8.6353 C.3     1  UNL1        0.1741
     54 O          64.5647   77.0399    9.2533 O.3     1  UNL1       -0.3511
@<TRIPOS>UNITY_ATOM_ATTR
48 1
charge -1
@<TRIPOS>BOND
     1    53    54    1
     2    54    52    1
     3    52    51    1
     4    51    50    1
     5    50    34    1
     6    34    35   ar
     7    35    36   ar
     8    36    33    1
     9    33     1    1
    10     1     2   am
    11     2     3    2
    12     4     2    1
    13     4     5    1
    14     5     6    1
    15     6     7    1
    16     7     8    1
    17     8     9    1
    18     9    11    1
    19    11    12   ar
    20    12    13   ar
    21    13    14   ar
    22    14    17    1
    23    17    18    1
    24    18    19    1
    25    19    20    1
    26    20    21    1
    27    21    22   ar
    28    22    23    1
    29    22    24   ar
    30    24    25   ar
    31    25    26    1
    32    25    27   ar
    33    27    28   ar
    34    28    29    1
    35    14    15   ar
    36    15    16   ar
    37     1    30    1
    38    30    31    1
    39    31    32    1
    40    36    37   ar
    41    37    38   ar
    42    38    40    1
    43    40    41    1
    44    41    42    1
    45    42    43    1
    46    43    44    1
    47    44    45    1
    48    44    46    1
    49    44    47    1
    50    47    48   ar
    51    47    49   ar
    52    38    39   ar
    53    39    34   ar
    54     9     4    1
    55    16    11   ar
    56    32    30    1
    57    28    21   ar
    58     6    10    1
@<TRIPOS>MOLECULE
*****
 54 58 0 0 0
SMALL
GASTEIGER

@<TRIPOS>ATOM
      1 N          62.5324   85.3962    8.9615 N.am    1  UNL1       -0.2770
      2 C          61.7130   86.4944    9.5718 C.2     1  UNL1        0.2270
      3 O          61.9380   86.8928   11.0003 O.2     1  UNL1       -0.2748
      4 C          60.6686   87.1942    8.7536 C.3     1  UNL1        0.0964
      5 C          59.8151   86.4125    7.7995 C.3     1  UNL1        0.0780
      6 N          58.7707   87.1123    6.9813 N.3     1  UNL1       -0.2970
      7 C          58.5798   88.5939    7.1172 C.3     1  UNL1        0.0689
      8 C          59.4333   89.3757    8.0714 C.3     1  UNL1        0.0220
      9 C          60.4777   88.6759    8.8896 C.3     1  UNL1        0.0337
     10 H          57.8768   86.6780    7.2110 H       1  UNL1        0.1233
     11 C          61.3312   89.4576    9.8437 C.ar    1  UNL1       -0.0217
     12 C          62.6637   89.9843    9.3994 C.ar    1  UNL1       -0.0012
     13 C          63.5172   90.7660   10.3535 C.ar    1  UNL1        0.0366
     14 C          63.0383   91.0211   11.7519 C.ar    1  UNL1        0.1387
     15 C          61.7060   90.4945   12.1963 C.ar    1  UNL1        0.0366
     16 C          60.8524   89.7127   11.2421 C.ar    1  UNL1       -0.0012
     17 O          63.8918   91.8028   12.7061 O.3     1  UNL1       -0.4714
     18 C          65.3417   92.0340   12.3987 C.3     1  UNL1        0.2525
     19 C          66.0275   93.2692   12.9026 C.3     1  UNL1        0.2525
     20 O          67.1712   93.8593   12.1321 O.3     1  UNL1       -0.4697
     21 C          66.9106   94.6083   10.8588 C.ar    1  UNL1        0.1596
     22 C          67.2364   93.9774    9.5375 C.ar    1  UNL1        0.0921
     23 CL         67.8228   92.5976    9.4894 Cl      1  UNL1       -0.0791
     24 C          66.9757   94.7263    8.2642 C.ar    1  UNL1        0.0103
     25 C          66.3893   96.1061    8.3122 C.ar    1  UNL1       -0.0200
     26 C          66.1287   96.8551    7.0390 C.3     1  UNL1        0.0311
     27 C          66.0635   96.7370    9.6336 C.ar    1  UNL1        0.0103
     28 C          66.3241   95.9880   10.9068 C.ar    1  UNL1        0.0921
     29 CL         65.9983   96.6189   12.2282 Cl      1  UNL1       -0.0791
     30 C          62.3074   84.9978    7.5330 C.3     1  UNL1        0.0758
     31 C          61.4037   84.4696    6.4586 C.3     1  UNL1        0.0215
     32 C          62.8214   84.8359    6.1331 C.3     1  UNL1        0.0215
     33 C          63.5768   84.6963    9.7797 C.3     1  UNL1        0.1201
     34 C          62.7745   81.7396   12.3024 C.ar    1  UNL1       -0.0194
     35 C          63.1659   82.4681   11.0510 C.ar    1  UNL1       -0.0067
     36 C          63.1854   83.9679   11.0312 C.ar    1  UNL1        0.0004
     37 C          62.8136   84.7391   12.2628 C.ar    1  UNL1        0.0343
     38 C          62.4222   84.0106   13.5142 C.ar    1  UNL1        0.1380
     39 C          62.4027   82.5109   13.5340 C.ar    1  UNL1        0.0326
     40 O          62.0503   84.7819   14.7459 O.3     1  UNL1       -0.4755
     41 C          62.7582   84.5139   16.0408 C.3     1  UNL1        0.2054
     42 C          63.6816   85.5454   16.6183 C.3     1  UNL1        0.0477
     43 C          64.2815   86.5956   15.7312 C.3     1  UNL1        0.0090
     44 C          63.7291   87.9902   15.7406 C.3     1  UNL1        0.0322
     45 C          64.3512   88.2456   14.3998 C.3     1  UNL1        0.0056
     46 C          63.1071   87.7347   17.0814 C.3     1  UNL1        0.0056
     47 C          63.1767   89.3848   15.7500 C.2     1  UNL1        0.0496
     48 O          64.1044   90.5596   15.6547 O.co2   1  UNL1       -0.5492
     49 O          61.6966   89.6044   15.8548 O.co2   1  UNL1       -0.5492
     50 C          62.7550   80.2399   12.3222 C.3     1  UNL1        0.0290
     51 C          62.5003   79.5101   13.6077 C.3     1  UNL1        0.0367
     52 C          61.2762   79.8212   14.4169 C.3     1  UNL1        0.1426
     53 C          58.6891   79.9254   14.6324 C.3     1  UNL1        0.1741
     54 O          59.9145   79.6668   13.8068 O.3     1  UNL1       -0.3511
@<TRIPOS>UNITY_ATOM_ATTR
48 1
charge -1
@<TRIPOS>BOND
     1    53    54    1
     2    54    52    1
     3    52    51    1
     4    51    50    1
     5    50    34    1
     6    34    35   ar
     7    35    36   ar
     8    36    33    1
     9    33     1    1
    10     1     2   am
    11     2     3    2
    12     4     2    1
    13     4     5    1
    14     5     6    1
    15     6     7    1
    16     7     8    1
    17     8     9    1
    18     9    11    1
    19    11    12   ar
    20    12    13   ar
    21    13    14   ar
    22    14    17    1
    23    17    18    1
    24    18    19    1
    25    19    20    1
    26    20    21    1
    27    21    22   ar
    28    22    23    1
    29    22    24   ar
    30    24    25   ar
    31    25    26    1
    32    25    27   ar
    33    27    28   ar
    34    28    29    1
    35    14    15   ar
    36    15    16   ar
    37     1    30    1
    38    30    31    1
    39    31    32    1
    40    36    37   ar
    41    37    38   ar
    42    38    40    1
    43    40    41    1
    44    41    42    1
    45    42    43    1
    46    43    44    1
    47    44    45    1
    48    44    46    1
    49    44    47    1
    50    47    48   ar
    51    47    49   ar
    52    38    39   ar
    53    39    34   ar
    54     9     4    1
    55    16    11   ar
    56    32    30    1
    57    28    21   ar
    58     6    10    1
@<TRIPOS>MOLECULE
*****
 54 58 0 0 0
SMALL
GASTEIGER

@<TRIPOS>ATOM
      1 N          62.1223   90.4878   11.9097 N.am    1  UNL1       -0.2770
      2 C          62.5622   90.4123   13.3418 C.2     1  UNL1        0.2270
      3 O          61.6501   89.8229   14.3764 O.2     1  UNL1       -0.2748
      4 C          63.9142   90.9263   13.7391 C.3     1  UNL1        0.0964
      5 C          64.4078   92.2352   13.1978 C.3     1  UNL1        0.0780
      6 N          65.7598   92.7492   13.5952 N.3     1  UNL1       -0.2970
      7 C          66.6182   91.9543   14.5338 C.3     1  UNL1        0.0689
      8 C          66.1247   90.6452   15.0751 C.3     1  UNL1        0.0220
      9 C          64.7726   90.1313   14.6778 C.3     1  UNL1        0.0337
     10 H          65.6123   93.6597   14.0306 H       1  UNL1        0.1233
     11 C          64.2791   88.8223   15.2191 C.ar    1  UNL1       -0.0217
     12 C          63.4308   88.7942   16.4559 C.ar    1  UNL1       -0.0012
     13 C          62.9372   87.4852   16.9972 C.ar    1  UNL1        0.0366
     14 C          63.2919   86.2044   16.3017 C.ar    1  UNL1        0.1387
     15 C          64.1401   86.2325   15.0649 C.ar    1  UNL1        0.0366
     16 C          64.6338   87.5415   14.5236 C.ar    1  UNL1       -0.0012
     17 O          62.7983   84.8955   16.8430 O.3     1  UNL1       -0.4714
     18 C          62.1712   83.8915   15.9216 C.3     1  UNL1        0.2525
     19 C          62.4531   83.9458   14.4494 C.3     1  UNL1        0.2525
     20 O          63.6184   83.1917   13.8807 O.3     1  UNL1       -0.4697
     21 C          63.4012   82.1912   12.7842 C.ar    1  UNL1        0.1596
     22 C          62.6423   80.9275   13.0616 C.ar    1  UNL1        0.0921
     23 CL         62.1005   80.6641   14.4353 Cl      1  UNL1       -0.0791
     24 C          62.4252   79.9270   11.9651 C.ar    1  UNL1        0.0103
     25 C          62.9670   80.1904   10.5914 C.ar    1  UNL1       -0.0200
     26 C          62.7499   79.1901    9.4950 C.3     1  UNL1        0.0311
     27 C          63.7260   81.4543   10.3141 C.ar    1  UNL1        0.0103
     28 C          63.9430   82.4546   11.4105 C.ar    1  UNL1        0.0921
     29 CL         64.7020   83.7185   11.1332 Cl      1  UNL1       -0.0791
     30 C          63.0344   91.0773   10.8750 C.3     1  UNL1        0.0758
     31 C          63.2483   91.6407    9.5014 C.3     1  UNL1        0.0215
     32 C          64.4001   91.5348   10.4564 C.3     1  UNL1        0.0215
     33 C          60.7702   89.9738   11.5123 C.3     1  UNL1        0.1201
     34 C          61.1502   86.7528    9.2252 C.ar    1  UNL1       -0.0194
     35 C          61.2844   87.6874   10.3908 C.ar    1  UNL1       -0.0067
     36 C          60.6360   89.0393   10.3467 C.ar    1  UNL1        0.0004
     37 C          59.8534   89.4566    9.1370 C.ar    1  UNL1        0.0343
     38 C          59.7192   88.5221    7.9715 C.ar    1  UNL1        0.1380
     39 C          60.3676   87.1702    8.0156 C.ar    1  UNL1        0.0326
     40 O          58.9365   88.9394    6.7617 O.3     1  UNL1       -0.4755
     41 C          59.0431   90.3445    6.2475 C.3     1  UNL1        0.2054
     42 C          60.0895   90.6938    5.2311 C.3     1  UNL1        0.0477
     43 C          59.8973   91.8807    4.3343 C.3     1  UNL1        0.0090
     44 C          60.9536   92.2429    3.3329 C.3     1  UNL1        0.0322
     45 C          61.9049   91.2879    3.9909 C.3     1  UNL1        0.0056
     46 C          60.0023   93.1979    2.6748 C.3     1  UNL1        0.0056
     47 C          62.0100   92.6051    2.3314 C.2     1  UNL1        0.0496
     48 O          61.7721   93.7249    1.3621 O.co2   1  UNL1       -0.5492
     49 O          63.3042   91.8476    2.2992 O.co2   1  UNL1       -0.5492
     50 C          61.7986   85.4009    9.2693 C.3     1  UNL1        0.0290
     51 C          63.0694   85.1536    8.5118 C.3     1  UNL1        0.0367
     52 C          63.0153   84.6364    7.1048 C.3     1  UNL1        0.1426
     53 C          61.6445   84.0987    4.9643 C.3     1  UNL1        0.1741
     54 O          61.6928   84.4741    6.4157 O.3     1  UNL1       -0.3511
@<TRIPOS>UNITY_ATOM_ATTR
48 1
charge -1
@<TRIPOS>BOND
     1    53    54    1
     2    54    52    1
     3    52    51    1
     4    51    50    1
     5    50    34    1
     6    34    35   ar
     7    35    36   ar
     8    36    33    1
     9    33     1    1
    10     1     2   am
    11     2     3    2
    12     4     2    1
    13     4     5    1
    14     5     6    1
    15     6     7    1
    16     7     8    1
    17     8     9    1
    18     9    11    1
    19    11    12   ar
    20    12    13   ar
    21    13    14   ar
    22    14    17    1
    23    17    18    1
    24    18    19    1
    25    19    20    1
    26    20    21    1
    27    21    22   ar
    28    22    23    1
    29    22    24   ar
    30    24    25   ar
    31    25    26    1
    32    25    27   ar
    33    27    28   ar
    34    28    29    1
    35    14    15   ar
    36    15    16   ar
    37     1    30    1
    38    30    31    1
    39    31    32    1
    40    36    37   ar
    41    37    38   ar
    42    38    40    1
    43    40    41    1
    44    41    42    1
    45    42    43    1
    46    43    44    1
    47    44    45    1
    48    44    46    1
    49    44    47    1
    50    47    48   ar
    51    47    49   ar
    52    38    39   ar
    53    39    34   ar
    54     9     4    1
    55    16    11   ar
    56    32    30    1
    57    28    21   ar
    58     6    10    1
@<TRIPOS>MOLECULE
*****
 54 58 0 0 0
SMALL
GASTEIGER

@<TRIPOS>ATOM
      1 N          64.9671   91.9998   11.2313 N.am    1  UNL1       -0.2770
      2 C          64.6327   92.0947   12.6905 C.2     1  UNL1        0.2270
      3 O          63.2721   91.6911   13.1759 O.2     1  UNL1       -0.2748
      4 C          65.6590   92.5932   13.6642 C.3     1  UNL1        0.0964
      5 C          66.5102   93.7781   13.3158 C.3     1  UNL1        0.0780
      6 N          67.5365   94.2767   14.2895 N.3     1  UNL1       -0.2970
      7 C          67.7117   93.5904   15.6117 C.3     1  UNL1        0.0689
      8 C          66.8605   92.4054   15.9602 C.3     1  UNL1        0.0220
      9 C          65.8342   91.9068   14.9865 C.3     1  UNL1        0.0337
     10 H          67.3033   95.2490   14.4911 H       1  UNL1        0.1233
     11 C          64.9830   90.7219   15.3349 C.ar    1  UNL1       -0.0217
     12 C          63.9624   90.8274   16.4293 C.ar    1  UNL1       -0.0012
     13 C          63.1113   89.6425   16.7777 C.ar    1  UNL1        0.0366
     14 C          63.2806   88.3521   16.0319 C.ar    1  UNL1        0.1387
     15 C          64.3010   88.2466   14.9377 C.ar    1  UNL1        0.0366
     16 C          65.1523   89.4315   14.5892 C.ar    1  UNL1       -0.0012
     17 O          62.4294   87.1672   16.3804 O.3     1  UNL1       -0.4714
     18 C          63.0506   85.8073   16.5020 C.3     1  UNL1        0.2525
     19 C          62.3014   84.5957   16.0321 C.3     1  UNL1        0.2525
     20 O          63.0429   83.3299   15.7196 O.3     1  UNL1       -0.4697
     21 C          63.2837   82.9345   14.2928 C.ar    1  UNL1        0.1596
     22 C          62.3747   81.9458   13.6249 C.ar    1  UNL1        0.0921
     23 CL         61.2249   81.3524   14.3838 Cl      1  UNL1       -0.0791
     24 C          62.6155   81.5503   12.1981 C.ar    1  UNL1        0.0103
     25 C          63.7654   82.1436   11.4392 C.ar    1  UNL1       -0.0200
     26 C          64.0062   81.7483   10.0125 C.3     1  UNL1        0.0311
     27 C          64.6744   83.1324   12.1072 C.ar    1  UNL1        0.0103
     28 C          64.4336   83.5278   13.5339 C.ar    1  UNL1        0.0921
     29 CL         65.3426   84.5165   14.2019 Cl      1  UNL1       -0.0791
     30 C          66.3278   92.4034   10.7459 C.3     1  UNL1        0.0758
     31 C          67.2040   93.3362    9.9635 C.3     1  UNL1        0.0215
     32 C          67.8083   92.1697   10.6874 C.3     1  UNL1        0.0215
     33 C          63.9408   91.5012   10.2576 C.3     1  UNL1        0.1201
     34 C          60.4775   89.7292   11.0421 C.ar    1  UNL1       -0.0194
     35 C          61.4751   90.7650   10.6156 C.ar    1  UNL1       -0.0067
     36 C          62.9432   90.4653   10.6841 C.ar    1  UNL1        0.0004
     37 C          63.4138   89.1299   11.1790 C.ar    1  UNL1        0.0343
     38 C          62.4162   88.0941   11.6055 C.ar    1  UNL1        0.1380
     39 C          60.9481   88.3937   11.5370 C.ar    1  UNL1        0.0326
     40 O          62.8868   86.7585   12.1005 O.3     1  UNL1       -0.4755
     41 C          62.0830   85.5256   11.8110 C.3     1  UNL1        0.2054
     42 C          62.0555   84.9568   10.4232 C.3     1  UNL1        0.0477
     43 C          61.7949   85.8542    9.2499 C.3     1  UNL1        0.0090
     44 C          61.8218   85.2957    7.8581 C.3     1  UNL1        0.0322
     45 C          60.4260   85.7957    7.6305 C.3     1  UNL1        0.0056
     46 C          63.2175   84.7957    8.0857 C.3     1  UNL1        0.0056
     47 C          61.8487   84.7371    6.4661 C.2     1  UNL1        0.0496
     48 O          60.6153   84.1120    5.8849 O.co2   1  UNL1       -0.5492
     49 O          63.1090   84.8038    5.6555 O.co2   1  UNL1       -0.5492
     50 C          59.0093   90.0289   10.9736 C.3     1  UNL1        0.0290
     51 C          58.4133   91.0689   11.8752 C.3     1  UNL1        0.0367
     52 C          58.6560   92.5242   11.6047 C.3     1  UNL1        0.1426
     53 C          57.9465   94.9074   12.3578 C.3     1  UNL1        0.1741
     54 O          57.5803   93.5298   11.8907 O.3     1  UNL1       -0.3511
@<TRIPOS>UNITY_ATOM_ATTR
48 1
charge -1
@<TRIPOS>BOND
     1    53    54    1
     2    54    52    1
     3    52    51    1
     4    51    50    1
     5    50    34    1
     6    34    35   ar
     7    35    36   ar
     8    36    33    1
     9    33     1    1
    10     1     2   am
    11     2     3    2
    12     4     2    1
    13     4     5    1
    14     5     6    1
    15     6     7    1
    16     7     8    1
    17     8     9    1
    18     9    11    1
    19    11    12   ar
    20    12    13   ar
    21    13    14   ar
    22    14    17    1
    23    17    18    1
    24    18    19    1
    25    19    20    1
    26    20    21    1
    27    21    22   ar
    28    22    23    1
    29    22    24   ar
    30    24    25   ar
    31    25    26    1
    32    25    27   ar
    33    27    28   ar
    34    28    29    1
    35    14    15   ar
    36    15    16   ar
    37     1    30    1
    38    30    31    1
    39    31    32    1
    40    36    37   ar
    41    37    38   ar
    42    38    40    1
    43    40    41    1
    44    41    42    1
    45    42    43    1
    46    43    44    1
    47    44    45    1
    48    44    46    1
    49    44    47    1
    50    47    48   ar
    51    47    49   ar
    52    38    39   ar
    53    39    34   ar
    54     9     4    1
    55    16    11   ar
    56    32    30    1
    57    28    21   ar
    58     6    10    1
@<TRIPOS>MOLECULE
*****
 54 58 0 0 0
SMALL
GASTEIGER

@<TRIPOS>ATOM
      1 N          62.6887   85.2333    9.6973 N.am    1  UNL1       -0.2770
      2 C          61.6967   86.2065   10.2621 C.2     1  UNL1        0.2270
      3 O          61.6079   86.4113   11.7453 O.2     1  UNL1       -0.2748
      4 C          60.7934   86.9748    9.3435 C.3     1  UNL1        0.0964
      5 C          59.9251   86.2448    8.3621 C.3     1  UNL1        0.0780
      6 N          59.0218   87.0131    7.4435 N.3     1  UNL1       -0.2970
      7 C          58.9868   88.5113    7.5062 C.3     1  UNL1        0.0689
      8 C          59.8552   89.2414    8.4877 C.3     1  UNL1        0.0220
      9 C          60.7585   88.4731    9.4063 C.3     1  UNL1        0.0337
     10 H          58.0720   86.6885    7.6252 H       1  UNL1        0.1233
     11 C          61.6268   89.2031   10.3876 C.ar    1  UNL1       -0.0217
     12 C          62.7850   90.0222    9.9000 C.ar    1  UNL1       -0.0012
     13 C          63.6533   90.7521   10.8813 C.ar    1  UNL1        0.0366
     14 C          63.3635   90.6631   12.3504 C.ar    1  UNL1        0.1387
     15 C          62.2054   89.8440   12.8380 C.ar    1  UNL1        0.0366
     16 C          61.3370   89.1140   11.8567 C.ar    1  UNL1       -0.0012
     17 O          64.2318   91.3930   13.3317 O.3     1  UNL1       -0.4714
     18 C          65.5797   91.8984   12.9097 C.3     1  UNL1        0.2525
     19 C          65.7653   93.3482   12.5729 C.3     1  UNL1        0.2525
     20 O          67.0307   93.8085   11.9119 O.3     1  UNL1       -0.4697
     21 C          66.9684   94.5701   10.6211 C.ar    1  UNL1        0.1596
     22 C          67.3997   93.9153    9.3424 C.ar    1  UNL1        0.0921
     23 CL         67.8933   92.4989    9.3544 Cl      1  UNL1       -0.0791
     24 C          67.3375   94.6770    8.0515 C.ar    1  UNL1        0.0103
     25 C          66.8439   96.0934    8.0395 C.ar    1  UNL1       -0.0200
     26 C          66.7817   96.8550    6.7488 C.3     1  UNL1        0.0311
     27 C          66.4126   96.7482    9.3183 C.ar    1  UNL1        0.0103
     28 C          66.4749   95.9865   10.6091 C.ar    1  UNL1        0.0921
     29 CL         66.0435   96.6413   11.8879 Cl      1  UNL1       -0.0791
     30 C          62.7774   85.0285    8.2141 C.3     1  UNL1        0.0758
     31 C          63.5097   85.2154    6.9184 C.3     1  UNL1        0.0215
     32 C          62.1988   84.4867    6.9406 C.3     1  UNL1        0.0215
     33 C          63.5920   84.4650   10.6159 C.3     1  UNL1        0.1201
     34 C          63.8510   85.6694   14.3885 C.ar    1  UNL1       -0.0194
     35 C          64.0585   85.6031   12.9044 C.ar    1  UNL1       -0.0067
     36 C          63.3845   84.5313   12.1001 C.ar    1  UNL1        0.0004
     37 C          62.5031   83.5258   12.7798 C.ar    1  UNL1        0.0343
     38 C          62.2956   83.5922   14.2638 C.ar    1  UNL1        0.1380
     39 C          62.9696   84.6639   15.0682 C.ar    1  UNL1        0.0326
     40 O          61.4141   82.5867   14.9436 O.3     1  UNL1       -0.4755
     41 C          61.0289   81.3240   14.2314 C.3     1  UNL1        0.2054
     42 C          62.0845   80.3356   13.8331 C.3     1  UNL1        0.0477
     43 C          62.9180   80.5803   12.6102 C.3     1  UNL1        0.0090
     44 C          62.8162   79.6533   11.4354 C.3     1  UNL1        0.0322
     45 C          62.5476   78.5062   12.3638 C.3     1  UNL1        0.0056
     46 C          63.0848   80.8004   10.5070 C.3     1  UNL1        0.0056
     47 C          62.7144   78.7263   10.2605 C.2     1  UNL1        0.0496
     48 O          62.9544   77.2567   10.4417 O.co2   1  UNL1       -0.5492
     49 O          62.3727   79.2688    8.9045 O.co2   1  UNL1       -0.5492
     50 C          64.5250   86.7412   15.1929 C.3     1  UNL1        0.0290
     51 C          64.0381   88.1576   15.1122 C.3     1  UNL1        0.0367
     52 C          63.3802   88.7935   16.3008 C.3     1  UNL1        0.1426
     53 C          63.7824   91.3455   16.5754 C.3     1  UNL1        0.1741
     54 O          62.8781   90.2044   16.2147 O.3     1  UNL1       -0.3511
@<TRIPOS>UNITY_ATOM_ATTR
48 1
charge -1
@<TRIPOS>BOND
     1    53    54    1
     2    54    52    1
     3    52    51    1
     4    51    50    1
     5    50    34    1
     6    34    35   ar
     7    35    36   ar
     8    36    33    1
     9    33     1    1
    10     1     2   am
    11     2     3    2
    12     4     2    1
    13     4     5    1
    14     5     6    1
    15     6     7    1
    16     7     8    1
    17     8     9    1
    18     9    11    1
    19    11    12   ar
    20    12    13   ar
    21    13    14   ar
    22    14    17    1
    23    17    18    1
    24    18    19    1
    25    19    20    1
    26    20    21    1
    27    21    22   ar
    28    22    23    1
    29    22    24   ar
    30    24    25   ar
    31    25    26    1
    32    25    27   ar
    33    27    28   ar
    34    28    29    1
    35    14    15   ar
    36    15    16   ar
    37     1    30    1
    38    30    31    1
    39    31    32    1
    40    36    37   ar
    41    37    38   ar
    42    38    40    1
    43    40    41    1
    44    41    42    1
    45    42    43    1
    46    43    44    1
    47    44    45    1
    48    44    46    1
    49    44    47    1
    50    47    48   ar
    51    47    49   ar
    52    38    39   ar
    53    39    34   ar
    54     9     4    1
    55    16    11   ar
    56    32    30    1
    57    28    21   ar
    58     6    10    1
@<TRIPOS>MOLECULE
*****
 54 58 0 0 0
SMALL
GASTEIGER

@<TRIPOS>ATOM
      1 N          61.8718   90.2068   11.7317 N.am    1  UNL1       -0.2770
      2 C          62.3512   90.2976   13.1502 C.2     1  UNL1        0.2270
      3 O          61.4859   89.7957   14.2679 O.2     1  UNL1       -0.2748
      4 C          63.6958   90.8905   13.4510 C.3     1  UNL1        0.0964
      5 C          64.1314   92.1496   12.7620 C.3     1  UNL1        0.0780
      6 N          65.4761   92.7424   13.0627 N.3     1  UNL1       -0.2970
      7 C          66.3851   92.0761   14.0524 C.3     1  UNL1        0.0689
      8 C          65.9496   90.8169   14.7415 C.3     1  UNL1        0.0220
      9 C          64.6049   90.2241   14.4408 C.3     1  UNL1        0.0337
     10 H          65.3107   93.6888   13.4055 H       1  UNL1        0.1233
     11 C          64.1693   88.9649   15.1297 C.ar    1  UNL1       -0.0217
     12 C          64.5231   87.6294   14.5455 C.ar    1  UNL1       -0.0012
     13 C          64.0875   86.3702   15.2345 C.ar    1  UNL1        0.0366
     14 C          63.2981   86.4465   16.5077 C.ar    1  UNL1        0.1387
     15 C          62.9443   87.7820   17.0919 C.ar    1  UNL1        0.0366
     16 C          63.3799   89.0412   16.4029 C.ar    1  UNL1       -0.0012
     17 O          62.8625   85.1874   17.1967 O.3     1  UNL1       -0.4714
     18 C          61.9565   84.2217   16.4919 C.3     1  UNL1        0.2525
     19 C          62.2740   83.7789   15.0944 C.3     1  UNL1        0.2525
     20 O          63.2121   82.6309   14.8663 O.3     1  UNL1       -0.4697
     21 C          63.1780   81.8810   13.5675 C.ar    1  UNL1        0.1596
     22 C          62.2311   80.7313   13.3900 C.ar    1  UNL1        0.0921
     23 CL         61.3183   80.3314   14.5111 Cl      1  UNL1       -0.0791
     24 C          62.1969   79.9815   12.0912 C.ar    1  UNL1        0.0103
     25 C          63.1097   80.3814   10.9701 C.ar    1  UNL1       -0.0200
     26 C          63.0756   79.6316    9.6714 C.3     1  UNL1        0.0311
     27 C          64.0566   81.5312   11.1478 C.ar    1  UNL1        0.0103
     28 C          64.0907   82.2809   12.4464 C.ar    1  UNL1        0.0921
     29 CL         65.0377   83.4307   12.6241 Cl      1  UNL1       -0.0791
     30 C          62.7371   90.7087   10.6141 C.3     1  UNL1        0.0758
     31 C          63.7741   90.4561    9.5601 C.3     1  UNL1        0.0215
     32 C          63.1989   91.8307    9.7321 C.3     1  UNL1        0.0215
     33 C          60.5272   89.6139   11.4310 C.3     1  UNL1        0.1201
     34 C          59.7576   89.5864    7.5378 C.ar    1  UNL1       -0.0194
     35 C          60.0652   90.0860    8.9182 C.ar    1  UNL1       -0.0067
     36 C          60.2196   89.1143   10.0505 C.ar    1  UNL1        0.0004
     37 C          60.0664   87.6429    9.8022 C.ar    1  UNL1        0.0343
     38 C          59.7588   87.1433    8.4217 C.ar    1  UNL1        0.1380
     39 C          59.6045   88.1150    7.2895 C.ar    1  UNL1        0.0326
     40 O          59.6057   85.6719    8.1734 O.3     1  UNL1       -0.4755
     41 C          60.5328   84.9708    7.2254 C.3     1  UNL1        0.2054
     42 C          61.9458   85.4488    7.0670 C.3     1  UNL1        0.0477
     43 C          62.9791   85.0875    8.0925 C.3     1  UNL1        0.0090
     44 C          62.7551   85.4293    9.5357 C.3     1  UNL1        0.0322
     45 C          62.5401   83.9777    9.8462 C.3     1  UNL1        0.0056
     46 C          62.9700   86.8810    9.2253 C.3     1  UNL1        0.0056
     47 C          62.5310   85.7712   10.9790 C.2     1  UNL1        0.0496
     48 O          61.9252   84.7581   11.9044 O.co2   1  UNL1       -0.5492
     49 O          62.9126   87.1263   11.4967 O.co2   1  UNL1       -0.5492
     50 C          59.6032   90.5581    6.4056 C.3     1  UNL1        0.0290
     51 C          58.3336   90.5839    5.6072 C.3     1  UNL1        0.0367
     52 C          57.9938   91.7863    4.7773 C.3     1  UNL1        0.1426
     53 C          59.9090   92.7446    3.3062 C.3     1  UNL1        0.1741
     54 O          59.0323   92.8377    4.5198 O.3     1  UNL1       -0.3511
@<TRIPOS>UNITY_ATOM_ATTR
48 1
charge -1
@<TRIPOS>BOND
     1    53    54    1
     2    54    52    1
     3    52    51    1
     4    51    50    1
     5    50    34    1
     6    34    35   ar
     7    35    36   ar
     8    36    33    1
     9    33     1    1
    10     1     2   am
    11     2     3    2
    12     4     2    1
    13     4     5    1
    14     5     6    1
    15     6     7    1
    16     7     8    1
    17     8     9    1
    18     9    11    1
    19    11    12   ar
    20    12    13   ar
    21    13    14   ar
    22    14    17    1
    23    17    18    1
    24    18    19    1
    25    19    20    1
    26    20    21    1
    27    21    22   ar
    28    22    23    1
    29    22    24   ar
    30    24    25   ar
    31    25    26    1
    32    25    27   ar
    33    27    28   ar
    34    28    29    1
    35    14    15   ar
    36    15    16   ar
    37     1    30    1
    38    30    31    1
    39    31    32    1
    40    36    37   ar
    41    37    38   ar
    42    38    40    1
    43    40    41    1
    44    41    42    1
    45    42    43    1
    46    43    44    1
    47    44    45    1
    48    44    46    1
    49    44    47    1
    50    47    48   ar
    51    47    49   ar
    52    38    39   ar
    53    39    34   ar
    54     9     4    1
    55    16    11   ar
    56    32    30    1
    57    28    21   ar
    58     6    10    1
