@<TRIPOS>MOLECULE
*****
 25 28 0 0 0
SMALL
GASTEIGER

@<TRIPOS>ATOM
      1 C          64.2364   87.2485   15.1362 C.3     1  UNL1        0.0564
      2 C          63.9488   88.1793   13.9956 C.3     1  UNL1        0.1119
      3 C          63.2638   87.8152   12.7118 C.ar    1  UNL1       -0.0002
      4 C          62.6998   86.5201   12.2073 C.ar    1  UNL1       -0.0024
      5 C          62.0593   86.4583   10.8524 C.ar    1  UNL1       -0.0003
      6 C          61.9829   87.6915   10.0019 C.ar    1  UNL1        0.0000
      7 C          62.5469   88.9866   10.5064 C.ar    1  UNL1        0.0012
      8 C          63.1874   89.0485   11.8613 C.ar    1  UNL1        0.0152
      9 C          63.8251   90.1747   12.6196 C.ar    1  UNL1        0.0804
     10 C          64.1721   91.6330   12.5625 C.ar    1  UNL1        0.1177
     11 N          64.8571   91.9969   13.8464 N.ar    1  UNL1       -0.2223
     12 C          64.9335   90.7637   14.6969 C.ar    1  UNL1        0.1788
     13 N          64.2958   89.6375   13.9386 N.ar    1  UNL1       -0.3069
     14 C          64.9505   85.9533   14.8856 C.3     1  UNL1        0.1128
     15 O          66.4491   85.9030   14.9264 O.3     1  UNL1       -0.3844
     16 H          66.7970   86.7862   15.1261 H       1  UNL1        0.2103
     17 C          62.3478   79.9591   12.7537 C.3     1  UNL1        0.0948
     18 C          61.8124   80.9742   13.7196 C.2     1  UNL1        0.2261
     19 O          60.4924   80.7444   14.3939 O.2     1  UNL1       -0.2749
     20 N          62.5969   82.2190   14.0111 N.am    1  UNL1       -0.2795
     21 C          63.9169   82.4487   13.3368 C.3     1  UNL1        0.0935
     22 C          64.7015   83.6935   13.6282 C.3     1  UNL1        0.0240
     23 C          64.1660   84.7085   14.5941 C.3     1  UNL1        0.0304
     24 C          62.8459   84.4788   15.2685 C.3     1  UNL1        0.0240
     25 C          62.0614   83.2340   14.9770 C.3     1  UNL1        0.0935
@<TRIPOS>BOND
     1    17    18    1
     2    18    19    2
     3    18    20   am
     4    20    21    1
     5    21    22    1
     6    22    23    1
     7    23    14    1
     8    14    15    1
     9    14     1    1
    10     1     2    1
    11     2     3    1
    12     3     4   ar
    13     4     5   ar
    14     5     6   ar
    15     6     7   ar
    16     7     8   ar
    17     8     9    1
    18     9    10   ar
    19    10    11   ar
    20    11    12   ar
    21    12    13   ar
    22    23    24    1
    23    24    25    1
    24    25    20    1
    25    13     2    1
    26     8     3   ar
    27    13     9   ar
    28    15    16    1
@<TRIPOS>MOLECULE
*****
 25 28 0 0 0
SMALL
GASTEIGER

@<TRIPOS>ATOM
      1 C          61.9218   90.2931   11.5156 C.3     1  UNL1        0.0564
      2 C          61.7542   88.8822   11.0348 C.3     1  UNL1        0.1119
      3 C          60.9654   88.4473    9.8353 C.ar    1  UNL1       -0.0002
      4 C          60.1658   89.2176    8.8268 C.ar    1  UNL1       -0.0024
      5 C          59.4704   88.4953    7.7111 C.ar    1  UNL1       -0.0003
      6 C          59.5746   87.0028    7.6040 C.ar    1  UNL1        0.0000
      7 C          60.3742   86.2325    8.6126 C.ar    1  UNL1        0.0012
      8 C          61.0697   86.9548    9.7282 C.ar    1  UNL1        0.0152
      9 C          61.9228   86.4673   10.8616 C.ar    1  UNL1        0.0804
     10 C          62.5145   85.2434   11.4959 C.ar    1  UNL1        0.1177
     11 N          63.3032   85.6783   12.6954 N.ar    1  UNL1       -0.2223
     12 C          63.1990   87.1709   12.8024 C.ar    1  UNL1        0.1788
     13 N          62.3459   87.6584   11.6691 N.ar    1  UNL1       -0.3069
     14 C          63.0929   91.1088   11.0537 C.3     1  UNL1        0.1128
     15 O          63.1595   91.5886    9.6341 O.3     1  UNL1       -0.3844
     16 H          62.3728   91.2867    9.1535 H       1  UNL1        0.2103
     17 C          67.3926   92.0687   16.3301 C.3     1  UNL1        0.0948
     18 C          67.5109   92.4519   14.8848 C.2     1  UNL1        0.2261
     19 O          68.7337   93.1710   14.3972 O.2     1  UNL1       -0.2749
     20 N          66.4064   92.1162   13.9269 N.am    1  UNL1       -0.2795
     21 C          65.1836   91.3971   14.4145 C.3     1  UNL1        0.0935
     22 C          64.0791   91.0613   13.4568 C.3     1  UNL1        0.0240
     23 C          64.1975   91.4446   12.0115 C.3     1  UNL1        0.0304
     24 C          65.4202   92.1636   11.5238 C.3     1  UNL1        0.0240
     25 C          66.5247   92.4994   12.4816 C.3     1  UNL1        0.0935
@<TRIPOS>BOND
     1    17    18    1
     2    18    19    2
     3    18    20   am
     4    20    21    1
     5    21    22    1
     6    22    23    1
     7    23    14    1
     8    14    15    1
     9    14     1    1
    10     1     2    1
    11     2     3    1
    12     3     4   ar
    13     4     5   ar
    14     5     6   ar
    15     6     7   ar
    16     7     8   ar
    17     8     9    1
    18     9    10   ar
    19    10    11   ar
    20    11    12   ar
    21    12    13   ar
    22    23    24    1
    23    24    25    1
    24    25    20    1
    25    13     2    1
    26     8     3   ar
    27    13     9   ar
    28    15    16    1
@<TRIPOS>MOLECULE
*****
 25 28 0 0 0
SMALL
GASTEIGER

@<TRIPOS>ATOM
      1 C          61.8981   90.1555   11.5433 C.3     1  UNL1        0.0564
      2 C          61.7009   88.8012   10.9294 C.3     1  UNL1        0.1119
      3 C          62.2542   87.5080   11.4504 C.ar    1  UNL1       -0.0002
      4 C          63.1043   87.1885   12.6442 C.ar    1  UNL1       -0.0024
      5 C          63.5113   85.7709   12.9173 C.ar    1  UNL1       -0.0003
      6 C          63.0681   84.6727   11.9966 C.ar    1  UNL1        0.0000
      7 C          62.2180   84.9922   10.8028 C.ar    1  UNL1        0.0012
      8 C          61.8111   86.4098   10.5297 C.ar    1  UNL1        0.0152
      9 C          60.9839   87.0243    9.4397 C.ar    1  UNL1        0.0804
     10 C          60.1988   86.7254    8.1970 C.ar    1  UNL1        0.1177
     11 N          59.6455   88.0187    7.6760 N.ar    1  UNL1       -0.2223
     12 C          60.0886   89.1168    8.5967 C.ar    1  UNL1        0.1788
     13 N          60.9158   88.5023    9.6867 N.ar    1  UNL1       -0.3069
     14 C          63.0281   91.0293   11.0853 C.3     1  UNL1        0.1128
     15 O          63.0521   91.5482    9.6781 O.3     1  UNL1       -0.3844
     16 H          62.2703   91.2275    9.2018 H       1  UNL1        0.2103
     17 C          67.3528   92.0607   16.3277 C.3     1  UNL1        0.0948
     18 C          67.4517   92.4488   14.8821 C.2     1  UNL1        0.2261
     19 O          68.6566   93.1918   14.3858 O.2     1  UNL1       -0.2749
     20 N          66.3458   92.0940   13.9328 N.am    1  UNL1       -0.2795
     21 C          65.1410   91.3510   14.4292 C.3     1  UNL1        0.0935
     22 C          64.0351   90.9961   13.4800 C.3     1  UNL1        0.0240
     23 C          64.1340   91.3842   12.0345 C.3     1  UNL1        0.0304
     24 C          65.3389   92.1272   11.5381 C.3     1  UNL1        0.0240
     25 C          66.4448   92.4821   12.4873 C.3     1  UNL1        0.0935
@<TRIPOS>BOND
     1    17    18    1
     2    18    19    2
     3    18    20   am
     4    20    21    1
     5    21    22    1
     6    22    23    1
     7    23    14    1
     8    14    15    1
     9    14     1    1
    10     1     2    1
    11     2     3    1
    12     3     4   ar
    13     4     5   ar
    14     5     6   ar
    15     6     7   ar
    16     7     8   ar
    17     8     9    1
    18     9    10   ar
    19    10    11   ar
    20    11    12   ar
    21    12    13   ar
    22    23    24    1
    23    24    25    1
    24    25    20    1
    25    13     2    1
    26     8     3   ar
    27    13     9   ar
    28    15    16    1
@<TRIPOS>MOLECULE
*****
 25 28 0 0 0
SMALL
GASTEIGER

@<TRIPOS>ATOM
      1 C          65.1971   90.8594   14.8386 C.3     1  UNL1        0.0564
      2 C          64.9162   91.3773   13.4592 C.3     1  UNL1        0.1119
      3 C          63.9500   90.7867   12.4755 C.ar    1  UNL1       -0.0002
      4 C          63.0398   89.5970   12.5534 C.ar    1  UNL1       -0.0024
      5 C          62.1685   89.2417   11.3853 C.ar    1  UNL1       -0.0003
      6 C          62.2073   90.0761   10.1394 C.ar    1  UNL1        0.0000
      7 C          63.1175   91.2658   10.0615 C.ar    1  UNL1        0.0012
      8 C          63.9888   91.6211   11.2296 C.ar    1  UNL1        0.0152
      9 C          64.9791   92.7274   11.4433 C.ar    1  UNL1        0.0804
     10 C          65.6151   93.9268   10.8053 C.ar    1  UNL1        0.1177
     11 N          66.5813   94.5173   11.7890 N.ar    1  UNL1       -0.2223
     12 C          66.5425   93.6829   13.0349 C.ar    1  UNL1        0.1788
     13 N          65.5522   92.5767   12.8212 N.ar    1  UNL1       -0.3069
     14 C          64.0975   90.2302   15.6419 C.3     1  UNL1        0.1128
     15 O          63.1722   91.0907   16.4500 O.3     1  UNL1       -0.3844
     16 H          63.4211   92.0222   16.3433 H       1  UNL1        0.2103
     17 C          64.0387   83.4448   14.5443 C.3     1  UNL1        0.0948
     18 C          63.4009   84.2708   15.6217 C.2     1  UNL1        0.2261
     19 O          62.5889   83.6070   16.6941 O.2     1  UNL1       -0.2749
     20 N          63.5750   85.7607   15.6268 N.am    1  UNL1       -0.2795
     21 C          64.3870   86.4245   14.5544 C.3     1  UNL1        0.0935
     22 C          64.5612   87.9143   14.5594 C.3     1  UNL1        0.0240
     23 C          63.9233   88.7403   15.6368 C.3     1  UNL1        0.0304
     24 C          63.1114   88.0765   16.7092 C.3     1  UNL1        0.0240
     25 C          62.9372   86.5866   16.7042 C.3     1  UNL1        0.0935
@<TRIPOS>BOND
     1    17    18    1
     2    18    19    2
     3    18    20   am
     4    20    21    1
     5    21    22    1
     6    22    23    1
     7    23    14    1
     8    14    15    1
     9    14     1    1
    10     1     2    1
    11     2     3    1
    12     3     4   ar
    13     4     5   ar
    14     5     6   ar
    15     6     7   ar
    16     7     8   ar
    17     8     9    1
    18     9    10   ar
    19    10    11   ar
    20    11    12   ar
    21    12    13   ar
    22    23    24    1
    23    24    25    1
    24    25    20    1
    25    13     2    1
    26     8     3   ar
    27    13     9   ar
    28    15    16    1
@<TRIPOS>MOLECULE
*****
 25 28 0 0 0
SMALL
GASTEIGER

@<TRIPOS>ATOM
      1 C          64.3298   90.9605   14.1549 C.3     1  UNL1        0.0564
      2 C          63.8010   89.8307   13.3220 C.3     1  UNL1        0.1119
      3 C          63.8957   88.3710   13.6541 C.ar    1  UNL1       -0.0002
      4 C          64.4961   87.6440   14.8207 C.ar    1  UNL1       -0.0024
      5 C          64.4386   86.1464   14.8813 C.ar    1  UNL1       -0.0003
      6 C          63.7807   85.3757   13.7753 C.ar    1  UNL1        0.0000
      7 C          63.1803   86.1027   12.6087 C.ar    1  UNL1        0.0012
      8 C          63.2378   87.6003   12.5481 C.ar    1  UNL1        0.0152
      9 C          62.7364   88.5838   11.5325 C.ar    1  UNL1        0.0804
     10 C          62.0199   88.7153   10.2212 C.ar    1  UNL1        0.1177
     11 N          61.9251   90.1750    9.8892 N.ar    1  UNL1       -0.2223
     12 C          62.5830   90.9457   10.9952 C.ar    1  UNL1        0.1788
     13 N          63.0844   89.9622   12.0108 N.ar    1  UNL1       -0.3069
     14 C          65.7344   91.4473   13.9535 C.3     1  UNL1        0.1128
     15 O          66.8358   90.9478   14.8407 O.3     1  UNL1       -0.3844
     16 H          66.4722   90.3215   15.4861 H       1  UNL1        0.2103
     17 C          67.1278   94.9192    8.1868 C.3     1  UNL1        0.0948
     18 C          66.9464   95.3926    9.5985 C.2     1  UNL1        0.2261
     19 O          67.0680   96.8523    9.9215 O.2     1  UNL1       -0.2749
     20 N          66.6434   94.4063   10.6874 N.am    1  UNL1       -0.2795
     21 C          66.5217   92.9466   10.3644 C.3     1  UNL1        0.0935
     22 C          66.2187   91.9602   11.4531 C.3     1  UNL1        0.0240
     23 C          66.0374   92.4337   12.8647 C.3     1  UNL1        0.0304
     24 C          66.1590   93.8934   13.1877 C.3     1  UNL1        0.0240
     25 C          66.4620   94.8798   12.0990 C.3     1  UNL1        0.0935
@<TRIPOS>BOND
     1    17    18    1
     2    18    19    2
     3    18    20   am
     4    20    21    1
     5    21    22    1
     6    22    23    1
     7    23    14    1
     8    14    15    1
     9    14     1    1
    10     1     2    1
    11     2     3    1
    12     3     4   ar
    13     4     5   ar
    14     5     6   ar
    15     6     7   ar
    16     7     8   ar
    17     8     9    1
    18     9    10   ar
    19    10    11   ar
    20    11    12   ar
    21    12    13   ar
    22    23    24    1
    23    24    25    1
    24    25    20    1
    25    13     2    1
    26     8     3   ar
    27    13     9   ar
    28    15    16    1
@<TRIPOS>MOLECULE
*****
 25 28 0 0 0
SMALL
GASTEIGER

@<TRIPOS>ATOM
      1 C          62.2834   84.6292   14.8839 C.3     1  UNL1        0.0564
      2 C          62.4697   84.0582   13.5094 C.3     1  UNL1        0.1119
      3 C          62.4887   84.8357   12.2268 C.ar    1  UNL1       -0.0002
      4 C          62.3407   86.3003   11.9386 C.ar    1  UNL1       -0.0024
      5 C          62.4044   86.7966   10.5246 C.ar    1  UNL1       -0.0003
      6 C          62.6161   85.8283    9.3987 C.ar    1  UNL1        0.0000
      7 C          62.7641   84.3637    9.6868 C.ar    1  UNL1        0.0012
      8 C          62.7004   83.8674   11.1009 C.ar    1  UNL1        0.0152
      9 C          62.8122   82.4915   11.6877 C.ar    1  UNL1        0.0804
     10 C          63.0121   81.0426   11.3545 C.ar    1  UNL1        0.1177
     11 N          62.9930   80.2651   12.6372 N.ar    1  UNL1       -0.2223
     12 C          62.7813   81.2334   13.7630 C.ar    1  UNL1        0.1788
     13 N          62.6695   82.6094   13.1762 N.ar    1  UNL1       -0.3069
     14 C          63.4476   85.2395   15.6066 C.3     1  UNL1        0.1128
     15 O          64.4348   84.3603   16.3155 O.3     1  UNL1       -0.3844
     16 H          64.1755   83.4317   16.2091 H       1  UNL1        0.2103
     17 C          64.9492   91.8683   14.5801 C.3     1  UNL1        0.0948
     18 C          64.1557   91.1973   15.6617 C.2     1  UNL1        0.2261
     19 O          63.5391   92.0157   16.7572 O.2     1  UNL1       -0.2749
     20 N          63.9786   89.7078   15.6480 N.am    1  UNL1       -0.2795
     21 C          64.5951   88.8894   14.5525 C.3     1  UNL1        0.0935
     22 C          64.4181   87.3999   14.5387 C.3     1  UNL1        0.0240
     23 C          63.6246   86.7290   15.6204 C.3     1  UNL1        0.0304
     24 C          63.0081   87.5474   16.7159 C.3     1  UNL1        0.0240
     25 C          63.1851   89.0369   16.7297 C.3     1  UNL1        0.0935
@<TRIPOS>BOND
     1    17    18    1
     2    18    19    2
     3    18    20   am
     4    20    21    1
     5    21    22    1
     6    22    23    1
     7    23    14    1
     8    14    15    1
     9    14     1    1
    10     1     2    1
    11     2     3    1
    12     3     4   ar
    13     4     5   ar
    14     5     6   ar
    15     6     7   ar
    16     7     8   ar
    17     8     9    1
    18     9    10   ar
    19    10    11   ar
    20    11    12   ar
    21    12    13   ar
    22    23    24    1
    23    24    25    1
    24    25    20    1
    25    13     2    1
    26     8     3   ar
    27    13     9   ar
    28    15    16    1
@<TRIPOS>MOLECULE
*****
 25 28 0 0 0
SMALL
GASTEIGER

@<TRIPOS>ATOM
      1 C          60.7870   88.2724   11.3592 C.3     1  UNL1        0.0564
      2 C          61.2727   87.0678   10.6087 C.3     1  UNL1        0.1119
      3 C          62.1980   86.0128   11.1386 C.ar    1  UNL1       -0.0002
      4 C          62.8706   85.8438   12.4686 C.ar    1  UNL1       -0.0024
      5 C          63.7607   84.6617   12.7140 C.ar    1  UNL1       -0.0003
      6 C          63.9782   83.6486   11.6294 C.ar    1  UNL1        0.0000
      7 C          63.3055   83.8176   10.2994 C.ar    1  UNL1        0.0012
      8 C          62.4154   84.9997   10.0540 C.ar    1  UNL1        0.0152
      9 C          61.6245   85.4286    8.8538 C.ar    1  UNL1        0.0804
     10 C          61.2701   85.0675    7.4416 C.ar    1  UNL1        0.1177
     11 N          60.3447   86.1226    6.9118 N.ar    1  UNL1       -0.2223
     12 C          60.1273   87.1357    7.9964 C.ar    1  UNL1        0.1788
     13 N          60.9182   86.7068    9.1966 N.ar    1  UNL1       -0.3069
     14 C          61.1066   89.6488   10.8557 C.3     1  UNL1        0.1128
     15 O          60.1816   90.3276    9.8895 O.3     1  UNL1       -0.3844
     16 H          59.4316   89.7438    9.6955 H       1  UNL1        0.2103
     17 C          66.5654   92.2596   14.1169 C.3     1  UNL1        0.0948
     18 C          66.0850   92.4394   12.7074 C.2     1  UNL1        0.2261
     19 O          66.8492   93.3168   11.7607 O.2     1  UNL1       -0.2749
     20 N          64.8404   91.7417   12.2444 N.am    1  UNL1       -0.2795
     21 C          64.0762   90.8643   13.1911 C.3     1  UNL1        0.0935
     22 C          62.8316   90.1667   12.7282 C.3     1  UNL1        0.0240
     23 C          62.3512   90.3465   11.3186 C.3     1  UNL1        0.0304
     24 C          63.1154   91.2239   10.3720 C.3     1  UNL1        0.0240
     25 C          64.3600   91.9216   10.8349 C.3     1  UNL1        0.0935
@<TRIPOS>BOND
     1    17    18    1
     2    18    19    2
     3    18    20   am
     4    20    21    1
     5    21    22    1
     6    22    23    1
     7    23    14    1
     8    14    15    1
     9    14     1    1
    10     1     2    1
    11     2     3    1
    12     3     4   ar
    13     4     5   ar
    14     5     6   ar
    15     6     7   ar
    16     7     8   ar
    17     8     9    1
    18     9    10   ar
    19    10    11   ar
    20    11    12   ar
    21    12    13   ar
    22    23    24    1
    23    24    25    1
    24    25    20    1
    25    13     2    1
    26     8     3   ar
    27    13     9   ar
    28    15    16    1
@<TRIPOS>MOLECULE
*****
 25 28 0 0 0
SMALL
GASTEIGER

@<TRIPOS>ATOM
      1 C          62.2341   84.6475   15.0293 C.3     1  UNL1        0.0564
      2 C          62.4123   84.1170   13.6376 C.3     1  UNL1        0.1119
      3 C          62.5443   82.6727   13.2548 C.ar    1  UNL1       -0.0002
      4 C          62.5401   81.4138   14.0703 C.ar    1  UNL1       -0.0024
      5 C          62.6951   80.0829   13.3961 C.ar    1  UNL1       -0.0003
      6 C          62.8542   80.0109   11.9063 C.ar    1  UNL1        0.0000
      7 C          62.8584   81.2698   11.0907 C.ar    1  UNL1        0.0012
      8 C          62.7034   82.6007   11.7650 C.ar    1  UNL1        0.0152
      9 C          62.6698   84.0005   11.2271 C.ar    1  UNL1        0.0804
     10 C          62.7473   84.8212    9.9738 C.ar    1  UNL1        0.1177
     11 N          62.6153   86.2655   10.3567 N.ar    1  UNL1       -0.2223
     12 C          62.4562   86.3375   11.8465 C.ar    1  UNL1        0.1788
     13 N          62.4899   84.9377   12.3844 N.ar    1  UNL1       -0.3069
     14 C          63.3945   85.2675   15.7500 C.3     1  UNL1        0.1128
     15 O          64.3591   84.4006   16.5036 O.3     1  UNL1       -0.3844
     16 H          64.0898   83.4722   16.4239 H       1  UNL1        0.2103
     17 C          64.9860   91.8406   14.5210 C.3     1  UNL1        0.0948
     18 C          64.1770   91.2147   15.6181 C.2     1  UNL1        0.2261
     19 O          63.5635   92.0757   16.6822 O.2     1  UNL1       -0.2749
     20 N          63.9813   89.7279   15.6511 N.am    1  UNL1       -0.2795
     21 C          64.5947   88.8669   14.5869 C.3     1  UNL1        0.0935
     22 C          64.3991   87.3801   14.6199 C.3     1  UNL1        0.0240
     23 C          63.5901   86.7543   15.7170 C.3     1  UNL1        0.0304
     24 C          62.9766   87.6153   16.7812 C.3     1  UNL1        0.0240
     25 C          63.1722   89.1021   16.7482 C.3     1  UNL1        0.0935
@<TRIPOS>BOND
     1    17    18    1
     2    18    19    2
     3    18    20   am
     4    20    21    1
     5    21    22    1
     6    22    23    1
     7    23    14    1
     8    14    15    1
     9    14     1    1
    10     1     2    1
    11     2     3    1
    12     3     4   ar
    13     4     5   ar
    14     5     6   ar
    15     6     7   ar
    16     7     8   ar
    17     8     9    1
    18     9    10   ar
    19    10    11   ar
    20    11    12   ar
    21    12    13   ar
    22    23    24    1
    23    24    25    1
    24    25    20    1
    25    13     2    1
    26     8     3   ar
    27    13     9   ar
    28    15    16    1
@<TRIPOS>MOLECULE
*****
 25 28 0 0 0
SMALL
GASTEIGER

@<TRIPOS>ATOM
      1 C          61.8347   89.2016   11.9759 C.3     1  UNL1        0.0564
      2 C          61.6805   87.9711   11.1319 C.3     1  UNL1        0.1119
      3 C          60.9246   87.8774    9.8397 C.ar    1  UNL1       -0.0002
      4 C          60.1523   88.8943    9.0526 C.ar    1  UNL1       -0.0024
      5 C          59.4875   88.5005    7.7670 C.ar    1  UNL1       -0.0003
      6 C          59.5949   87.0899    7.2684 C.ar    1  UNL1        0.0000
      7 C          60.3672   86.0730    8.0555 C.ar    1  UNL1        0.0012
      8 C          61.0320   86.4668    9.3411 C.ar    1  UNL1        0.0152
      9 C          61.8543   85.6887   10.3252 C.ar    1  UNL1        0.0804
     10 C          62.4290   84.3359   10.6253 C.ar    1  UNL1        0.1177
     11 N          63.1849   84.4298   11.9176 N.ar    1  UNL1       -0.2223
     12 C          63.0774   85.8404   12.4161 C.ar    1  UNL1        0.1788
     13 N          62.2551   86.6184   11.4320 N.ar    1  UNL1       -0.3069
     14 C          63.1598   89.5198   12.6028 C.3     1  UNL1        0.1128
     15 O          63.7428   88.5985   13.6329 O.3     1  UNL1       -0.3844
     16 H          63.1408   87.8515   13.7762 H       1  UNL1        0.2103
     17 C          66.0414   94.9786    9.5781 C.3     1  UNL1        0.0948
     18 C          66.1279   94.4784   10.9896 C.2     1  UNL1        0.2261
     19 O          66.9565   95.2179   11.9978 O.2     1  UNL1       -0.2749
     20 N          65.3859   93.2388   11.3930 N.am    1  UNL1       -0.2795
     21 C          64.5573   92.4992   10.3848 C.3     1  UNL1        0.0935
     22 C          63.8152   91.2596   10.7880 C.3     1  UNL1        0.0240
     23 C          63.9018   90.7595   12.1995 C.3     1  UNL1        0.0304
     24 C          64.7304   91.4990   13.2077 C.3     1  UNL1        0.0240
     25 C          65.4725   92.7387   12.8045 C.3     1  UNL1        0.0935
@<TRIPOS>BOND
     1    17    18    1
     2    18    19    2
     3    18    20   am
     4    20    21    1
     5    21    22    1
     6    22    23    1
     7    23    14    1
     8    14    15    1
     9    14     1    1
    10     1     2    1
    11     2     3    1
    12     3     4   ar
    13     4     5   ar
    14     5     6   ar
    15     6     7   ar
    16     7     8   ar
    17     8     9    1
    18     9    10   ar
    19    10    11   ar
    20    11    12   ar
    21    12    13   ar
    22    23    24    1
    23    24    25    1
    24    25    20    1
    25    13     2    1
    26     8     3   ar
    27    13     9   ar
    28    15    16    1
