@<TRIPOS>MOLECULE
*****
 36 39 0 0 0
SMALL
GASTEIGER

@<TRIPOS>ATOM
      1 C          63.2004   85.7528   15.2061 C.ar    1  UNL1        0.0154
      2 C          62.8008   85.9449   16.6391 C.ar    1  UNL1        0.0985
      3 N          62.9319   87.2948   17.2798 N.ar    1  UNL1       -0.2423
      4 C          63.4626   88.4527   16.4876 C.ar    1  UNL1        0.0985
      5 C          63.8622   88.2606   15.0546 C.ar    1  UNL1        0.0152
      6 C          63.7311   86.9106   14.4139 C.ar    1  UNL1       -0.0188
      7 C          64.1307   86.7186   12.9809 C.3     1  UNL1        0.0311
      8 C          63.8636   82.6577   12.8123 C.ar    1  UNL1        0.1452
      9 C          63.9946   84.0076   13.4530 C.ar    1  UNL1        0.0372
     10 C          63.0693   84.4028   14.5654 C.ar    1  UNL1        0.0064
     11 C          62.0129   83.4482   15.0372 C.ar    1  UNL1        0.0300
     12 C          61.8818   82.0983   14.3965 C.ar    1  UNL1        0.1474
     13 F          60.8254   81.1435   14.8682 F       1  UNL1       -0.2039
     14 C          62.8072   81.7030   13.2840 C.ar    1  UNL1        0.1144
     15 C          62.6761   80.3530   12.6433 C.2     1  UNL1        0.2479
     16 N          62.7545   80.2202   11.1513 N.am    1  UNL1       -0.3252
     17 O          62.4665   79.1360   13.4946 O.2     1  UNL1       -0.2702
     18 H          62.8921   81.0190   10.5925 H       1  UNL1        0.1453
     19 H          62.6685   79.3342   10.7307 H       1  UNL1        0.1453
     20 C          64.6527   82.8997   10.3488 C.3     1  UNL1        0.2525
     21 O          64.7889   82.2624   11.6998 O.3     1  UNL1       -0.4712
     22 C          64.3929   89.4185   14.2623 C.ar    1  UNL1        0.0013
     23 C          63.6849   89.8621   13.0166 C.ar    1  UNL1        0.0013
     24 C          64.2156   91.0200   12.2242 C.ar    1  UNL1        0.0145
     25 C          65.4543   91.7342   12.6777 C.ar    1  UNL1        0.0479
     26 C          66.1623   91.2905   13.9235 C.ar    1  UNL1        0.0145
     27 C          65.6316   90.1327   14.7158 C.ar    1  UNL1        0.0013
     28 N          65.9850   92.8920   11.8854 N.pl3   1  UNL1       -0.3047
     29 C          65.7631   94.2950   12.3674 C.3     1  UNL1        0.1067
     30 C          66.2938   95.4530   11.5751 C.3     1  UNL1        0.0774
     31 C          66.0719   96.8560   12.0570 C.3     1  UNL1        0.0191
     32 N          67.0464   95.2078   10.3009 N.3     1  UNL1       -0.2709
     33 C          67.5771   96.3656    9.5086 C.3     1  UNL1        0.0897
     34 C          67.2683   93.8047    9.8190 C.3     1  UNL1        0.0774
     35 C          68.0208   93.5595    8.5448 C.3     1  UNL1        0.0191
     36 C          66.7376   92.6469   10.6113 C.3     1  UNL1        0.1067
@<TRIPOS>BOND
     1    20    21    1
     2    21     8    1
     3     8     9   ar
     4     9    10   ar
     5    10     1    1
     6     1     2   ar
     7     2     3   ar
     8     3     4   ar
     9     4     5   ar
    10     5    22    1
    11    22    23   ar
    12    23    24   ar
    13    24    25   ar
    14    25    28    1
    15    28    29    1
    16    29    30    1
    17    30    31    1
    18    30    32    1
    19    32    33    1
    20    32    34    1
    21    34    35    1
    22    34    36    1
    23    25    26   ar
    24    26    27   ar
    25     5     6   ar
    26     6     7    1
    27    10    11   ar
    28    11    12   ar
    29    12    13    1
    30    12    14   ar
    31    14    15    1
    32    15    16   am
    33    15    17    2
    34    14     8   ar
    35     6     1   ar
    36    27    22   ar
    37    36    28    1
    38    16    18    1
    39    16    19    1
@<TRIPOS>MOLECULE
*****
 36 39 0 0 0
SMALL
GASTEIGER

@<TRIPOS>ATOM
      1 C          59.0075   90.1325    6.1164 C.ar    1  UNL1        0.0154
      2 C          57.5324   90.4047    6.1209 C.ar    1  UNL1        0.0985
      3 N          56.9393   91.3404    5.1097 N.ar    1  UNL1       -0.2423
      4 C          57.8214   92.0041    4.0940 C.ar    1  UNL1        0.0985
      5 C          59.2965   91.7319    4.0895 C.ar    1  UNL1        0.0152
      6 C          59.8895   90.7961    5.1008 C.ar    1  UNL1       -0.0188
      7 C          61.3646   90.5239    5.0963 C.3     1  UNL1        0.0311
      8 C          60.8248   88.8060    9.3857 C.ar    1  UNL1        0.1452
      9 C          60.2318   89.7417    8.3744 C.ar    1  UNL1        0.0372
     10 C          59.6005   89.1966    7.1277 C.ar    1  UNL1        0.0064
     11 C          59.5622   87.7157    6.8922 C.ar    1  UNL1        0.0300
     12 C          60.1553   86.7800    7.9034 C.ar    1  UNL1        0.1474
     13 F          60.1170   85.2990    7.6680 F       1  UNL1       -0.2039
     14 C          60.7865   87.3251    9.1502 C.ar    1  UNL1        0.1144
     15 C          61.3796   86.3893   10.1614 C.2     1  UNL1        0.2479
     16 N          61.0070   86.5153   11.6090 N.am    1  UNL1       -0.3252
     17 O          62.3451   85.3275    9.7251 O.2     1  UNL1       -0.2702
     18 H          60.3733   87.2122   11.8953 H       1  UNL1        0.1453
     19 H          61.3962   85.9011   12.2727 H       1  UNL1        0.1453
     20 C          60.6315   90.1362   11.6090 C.3     1  UNL1        0.2525
     21 O          61.4560   89.3511   10.6324 O.3     1  UNL1       -0.4712
     22 C          60.1785   92.3955    3.0739 C.ar    1  UNL1        0.0013
     23 C          61.6702   92.3084    3.2048 C.ar    1  UNL1        0.0013
     24 C          62.5523   92.9720    2.1892 C.ar    1  UNL1        0.0145
     25 C          61.9427   93.7228    1.0426 C.ar    1  UNL1        0.0479
     26 C          60.4509   93.8099    0.9117 C.ar    1  UNL1        0.0145
     27 C          59.5688   93.1463    1.9273 C.ar    1  UNL1        0.0013
     28 N          62.8247   94.3864    0.0269 N.pl3   1  UNL1       -0.3047
     29 C          63.9359   95.2891    0.4742 C.3     1  UNL1        0.1067
     30 C          64.8180   95.9528   -0.5414 C.3     1  UNL1        0.0774
     31 C          65.9293   96.8556   -0.0941 C.3     1  UNL1        0.0191
     32 N          64.5889   95.7136   -2.0044 N.3     1  UNL1       -0.2709
     33 C          65.4709   96.3772   -3.0200 C.3     1  UNL1        0.0897
     34 C          63.4776   94.8108   -2.4517 C.3     1  UNL1        0.0774
     35 C          63.2484   94.5716   -3.9147 C.3     1  UNL1        0.0191
     36 C          62.5956   94.1472   -1.4360 C.3     1  UNL1        0.1067
@<TRIPOS>BOND
     1    20    21    1
     2    21     8    1
     3     8     9   ar
     4     9    10   ar
     5    10     1    1
     6     1     2   ar
     7     2     3   ar
     8     3     4   ar
     9     4     5   ar
    10     5    22    1
    11    22    23   ar
    12    23    24   ar
    13    24    25   ar
    14    25    28    1
    15    28    29    1
    16    29    30    1
    17    30    31    1
    18    30    32    1
    19    32    33    1
    20    32    34    1
    21    34    35    1
    22    34    36    1
    23    25    26   ar
    24    26    27   ar
    25     5     6   ar
    26     6     7    1
    27    10    11   ar
    28    11    12   ar
    29    12    13    1
    30    12    14   ar
    31    14    15    1
    32    15    16   am
    33    15    17    2
    34    14     8   ar
    35     6     1   ar
    36    27    22   ar
    37    36    28    1
    38    16    18    1
    39    16    19    1
