@<TRIPOS>MOLECULE
*****
 32 35 0 0 0
SMALL
GASTEIGER

@<TRIPOS>ATOM
      1 N          62.9634   90.6780   11.7232 N.am    1  UNL1       -0.2438
      2 C          63.5328   91.2531   10.4603 C.3     1  UNL1        0.1009
      3 C          64.6891   92.2064   10.5249 C.3     1  UNL1        0.0661
      4 C          65.2759   92.5847   11.8525 C.3     1  UNL1        0.1578
      5 O          64.7065   92.0096   13.1155 O.3     1  UNL1       -0.4375
      6 C          63.5503   91.0562   13.0508 C.2     1  UNL1        0.4051
      7 O          62.9809   90.4811   14.3137 O.2     1  UNL1       -0.2262
      8 C          66.1552   93.3881   10.9406 C.ar    1  UNL1        0.0137
      9 C          67.2113   92.7049   10.1234 C.ar    1  UNL1       -0.0010
     10 C          68.0906   93.5083    9.2115 C.ar    1  UNL1       -0.0002
     11 C          67.9138   94.9948    9.1170 C.ar    1  UNL1       -0.0000
     12 C          66.8577   95.6780    9.9342 C.ar    1  UNL1       -0.0002
     13 C          65.9784   94.8746   10.8461 C.ar    1  UNL1       -0.0010
     14 C          60.4041   90.2508   11.5922 C.3     1  UNL1        0.0265
     15 C          61.8072   89.7246   11.6585 C.3     1  UNL1        0.1011
     16 C          62.0541   88.2450   11.6601 C.ar    1  UNL1       -0.0042
     17 C          63.0977   87.6598   12.5648 C.ar    1  UNL1       -0.0027
     18 C          63.3445   86.1803   12.5663 C.ar    1  UNL1       -0.0002
     19 C          62.5478   85.2860   11.6633 C.ar    1  UNL1        0.0015
     20 C          61.5042   85.8712   10.7587 C.ar    1  UNL1       -0.0002
     21 C          61.2573   87.3507   10.7571 C.ar    1  UNL1       -0.0027
     22 C          62.7947   83.8064   11.6650 C.ar    1  UNL1        0.0192
     23 C          63.4244   83.1498   10.4724 C.ar    1  UNL1        0.0031
     24 C          63.6713   81.6702   10.4740 C.ar    1  UNL1        0.0207
     25 C          63.2884   80.8473   11.6683 C.ar    1  UNL1        0.0989
     26 N          62.6587   81.5040   12.8609 N.ar    1  UNL1       -0.2423
     27 C          62.4118   82.9835   12.8592 C.ar    1  UNL1        0.0988
     28 C          66.1682   93.2420   12.8635 C.3     1  UNL1        0.0471
     29 C          66.6072   92.4844   14.0813 C.3     1  UNL1        0.0357
     30 C          68.0448   92.0862   14.2391 C.3     1  UNL1        0.1373
     31 O          68.8441   91.6713   13.0396 O.3     1  UNL1       -0.3820
     32 H          68.4848   90.8442   12.6820 H       1  UNL1        0.2104
@<TRIPOS>BOND
     1    15    14    1
     2    15    16    1
     3    16    17   ar
     4    17    18   ar
     5    18    19   ar
     6    19    22    1
     7    22    23   ar
     8    23    24   ar
     9    24    25   ar
    10    25    26   ar
    11    26    27   ar
    12    19    20   ar
    13    20    21   ar
    14    15     1    1
    15     1     2    1
    16     2     3    1
    17     3     4    1
    18     4    28    1
    19    28    29    1
    20    29    30    1
    21    30    31    1
    22     4     8    1
    23     8     9   ar
    24     9    10   ar
    25    10    11   ar
    26    11    12   ar
    27    12    13   ar
    28     4     5    1
    29     5     6    1
    30     6     7    2
    31    21    16   ar
    32     6     1   am
    33    27    22   ar
    34    13     8   ar
    35    31    32    1
@<TRIPOS>MOLECULE
*****
 32 35 0 0 0
SMALL
GASTEIGER

@<TRIPOS>ATOM
      1 N          63.3237   90.2562   12.0646 N.am    1  UNL1       -0.2438
      2 C          64.0168   90.1336   13.3892 C.3     1  UNL1        0.1009
      3 C          65.1968   91.0053   13.7018 C.3     1  UNL1        0.0661
      4 C          65.6838   91.9996   12.6897 C.3     1  UNL1        0.1578
      5 O          64.9907   92.1222   11.3651 O.3     1  UNL1       -0.4375
      6 C          63.8107   91.2505   11.0525 C.2     1  UNL1        0.4051
      7 O          63.1177   91.3731    9.7279 O.2     1  UNL1       -0.2262
      8 C          66.6643   92.2529   13.7964 C.ar    1  UNL1        0.0137
      9 C          66.1842   92.7712   15.1196 C.ar    1  UNL1       -0.0010
     10 C          67.1647   93.0244   16.2263 C.ar    1  UNL1       -0.0002
     11 C          68.6251   92.7594   16.0096 C.ar    1  UNL1       -0.0000
     12 C          69.1051   92.2411   14.6863 C.ar    1  UNL1       -0.0002
     13 C          68.1246   91.9878   13.5797 C.ar    1  UNL1       -0.0010
     14 C          60.8150   90.0054   11.4377 C.3     1  UNL1        0.0265
     15 C          62.1437   89.3845   11.7520 C.3     1  UNL1        0.1011
     16 C          62.2925   87.8918   11.7538 C.ar    1  UNL1       -0.0042
     17 C          61.5263   87.0606   10.7680 C.ar    1  UNL1       -0.0027
     18 C          61.6751   85.5680   10.7699 C.ar    1  UNL1       -0.0002
     19 C          62.5901   84.9067   11.7575 C.ar    1  UNL1        0.0015
     20 C          63.3563   85.7380   12.7434 C.ar    1  UNL1       -0.0002
     21 C          63.2075   87.2306   12.7415 C.ar    1  UNL1       -0.0027
     22 C          62.7389   83.4141   11.7593 C.ar    1  UNL1        0.0192
     23 C          63.2241   82.7072   10.5286 C.ar    1  UNL1        0.0031
     24 C          63.3729   81.2146   10.5304 C.ar    1  UNL1        0.0207
     25 C          63.0365   80.4288   11.7630 C.ar    1  UNL1        0.0989
     26 N          62.5512   81.1357   12.9939 N.ar    1  UNL1       -0.2423
     27 C          62.4025   82.6283   12.9920 C.ar    1  UNL1        0.0988
     28 C          66.5113   93.0818   12.0620 C.3     1  UNL1        0.0471
     29 C          66.7516   93.0788   10.5814 C.3     1  UNL1        0.0357
     30 C          67.9887   92.4398   10.0236 C.3     1  UNL1        0.1373
     31 O          69.2265   93.2604    9.8122 O.3     1  UNL1       -0.3820
     32 H          69.0613   93.9230    9.1233 H       1  UNL1        0.2104
@<TRIPOS>BOND
     1    15    14    1
     2    15    16    1
     3    16    17   ar
     4    17    18   ar
     5    18    19   ar
     6    19    22    1
     7    22    23   ar
     8    23    24   ar
     9    24    25   ar
    10    25    26   ar
    11    26    27   ar
    12    19    20   ar
    13    20    21   ar
    14    15     1    1
    15     1     2    1
    16     2     3    1
    17     3     4    1
    18     4    28    1
    19    28    29    1
    20    29    30    1
    21    30    31    1
    22     4     8    1
    23     8     9   ar
    24     9    10   ar
    25    10    11   ar
    26    11    12   ar
    27    12    13   ar
    28     4     5    1
    29     5     6    1
    30     6     7    2
    31    21    16   ar
    32     6     1   am
    33    27    22   ar
    34    13     8   ar
    35    31    32    1
@<TRIPOS>MOLECULE
*****
 32 35 0 0 0
SMALL
GASTEIGER

@<TRIPOS>ATOM
      1 N          63.2315   88.6099   13.0080 N.am    1  UNL1       -0.2438
      2 C          63.9301   87.3205   13.3229 C.3     1  UNL1        0.1009
      3 C          63.5329   86.0597   12.6141 C.3     1  UNL1        0.0661
      4 C          62.4371   86.0883   11.5902 C.3     1  UNL1        0.1578
      5 O          61.7384   87.3777   11.2752 O.3     1  UNL1       -0.4375
      6 C          62.1356   88.6386   11.9841 C.2     1  UNL1        0.4051
      7 O          61.4370   89.9280   11.6692 O.2     1  UNL1       -0.2262
      8 C          62.7988   84.6332   11.5440 C.ar    1  UNL1        0.0137
      9 C          63.4575   84.0625   10.3232 C.ar    1  UNL1       -0.0010
     10 C          63.8192   82.6075   10.2770 C.ar    1  UNL1       -0.0002
     11 C          63.5221   81.7233   11.4517 C.ar    1  UNL1       -0.0000
     12 C          62.8634   82.2939   12.6725 C.ar    1  UNL1       -0.0002
     13 C          62.5017   83.7490   12.7187 C.ar    1  UNL1       -0.0010
     14 C          63.3684   90.0187   15.1866 C.3     1  UNL1        0.0265
     15 C          63.6287   89.8708   13.7169 C.3     1  UNL1        0.1011
     16 C          64.2863   90.9837   12.9559 C.ar    1  UNL1       -0.0042
     17 C          65.3273   91.8344   13.6211 C.ar    1  UNL1       -0.0027
     18 C          65.9849   92.9472   12.8602 C.ar    1  UNL1       -0.0002
     19 C          65.6013   93.2094   11.4339 C.ar    1  UNL1        0.0015
     20 C          64.5603   92.3588   10.7687 C.ar    1  UNL1       -0.0002
     21 C          63.9028   91.2459   11.5296 C.ar    1  UNL1       -0.0027
     22 C          66.2589   94.3224   10.6729 C.ar    1  UNL1        0.0192
     23 C          67.0378   94.0211    9.4270 C.ar    1  UNL1        0.0031
     24 C          67.6954   95.1340    8.6660 C.ar    1  UNL1        0.0207
     25 C          67.5741   96.5482    9.1511 C.ar    1  UNL1        0.0989
     26 N          66.7951   96.8495   10.3971 N.ar    1  UNL1       -0.2423
     27 C          66.1376   95.7366   11.1580 C.ar    1  UNL1        0.0988
     28 C          61.4668   85.6115   10.5503 C.3     1  UNL1        0.0471
     29 C          60.9313   86.5703    9.5286 C.3     1  UNL1        0.0357
     30 C          60.7708   86.1341    8.1024 C.3     1  UNL1        0.1373
     31 O          59.4002   85.9018    7.5389 O.3     1  UNL1       -0.3820
     32 H          58.9903   85.1455    7.9871 H       1  UNL1        0.2104
@<TRIPOS>BOND
     1    15    14    1
     2    15    16    1
     3    16    17   ar
     4    17    18   ar
     5    18    19   ar
     6    19    22    1
     7    22    23   ar
     8    23    24   ar
     9    24    25   ar
    10    25    26   ar
    11    26    27   ar
    12    19    20   ar
    13    20    21   ar
    14    15     1    1
    15     1     2    1
    16     2     3    1
    17     3     4    1
    18     4    28    1
    19    28    29    1
    20    29    30    1
    21    30    31    1
    22     4     8    1
    23     8     9   ar
    24     9    10   ar
    25    10    11   ar
    26    11    12   ar
    27    12    13   ar
    28     4     5    1
    29     5     6    1
    30     6     7    2
    31    21    16   ar
    32     6     1   am
    33    27    22   ar
    34    13     8   ar
    35    31    32    1
@<TRIPOS>MOLECULE
*****
 32 35 0 0 0
SMALL
GASTEIGER

@<TRIPOS>ATOM
      1 N          62.5136   87.9439   12.2820 N.am    1  UNL1       -0.2438
      2 C          62.1470   86.8767   11.2938 C.3     1  UNL1        0.1009
      3 C          62.6317   85.4713   11.4932 C.3     1  UNL1        0.0661
      4 C          63.4831   85.1330   12.6809 C.3     1  UNL1        0.1578
      5 O          63.8498   86.2002   13.6693 O.3     1  UNL1       -0.4375
      6 C          63.3650   87.6056   13.4698 C.2     1  UNL1        0.4051
      7 O          63.7316   88.6728   14.4581 O.2     1  UNL1       -0.2262
      8 C          63.4025   83.7858   12.0262 C.ar    1  UNL1        0.0137
      9 C          64.1723   83.5165   10.7673 C.ar    1  UNL1       -0.0010
     10 C          64.0916   82.1694   10.1125 C.ar    1  UNL1       -0.0002
     11 C          63.2411   81.0916   10.7167 C.ar    1  UNL1       -0.0000
     12 C          62.4712   81.3609   11.9756 C.ar    1  UNL1       -0.0002
     13 C          62.5519   82.7081   12.6303 C.ar    1  UNL1       -0.0010
     14 C          60.5813   89.6805   12.2945 C.3     1  UNL1        0.0265
     15 C          62.0288   89.3493   12.0826 C.3     1  UNL1        0.1011
     16 C          62.9916   90.4235   11.6712 C.ar    1  UNL1       -0.0042
     17 C          63.0266   90.8943   10.2475 C.ar    1  UNL1       -0.0027
     18 C          63.9894   91.9684    9.8362 C.ar    1  UNL1       -0.0002
     19 C          64.9172   92.5718   10.8487 C.ar    1  UNL1        0.0015
     20 C          64.8822   92.1010   12.2725 C.ar    1  UNL1       -0.0002
     21 C          63.9195   91.0269   12.6837 C.ar    1  UNL1       -0.0027
     22 C          65.8801   93.6460   10.4374 C.ar    1  UNL1        0.0192
     23 C          65.5405   95.0879   10.6730 C.ar    1  UNL1        0.0031
     24 C          66.5033   96.1621   10.2617 C.ar    1  UNL1        0.0207
     25 C          67.8057   95.7943    9.6147 C.ar    1  UNL1        0.0989
     26 N          68.1452   94.3523    9.3791 N.ar    1  UNL1       -0.2423
     27 C          67.1824   93.2782    9.7904 C.ar    1  UNL1        0.0988
     28 C          64.3065   84.3269   13.6413 C.3     1  UNL1        0.0471
     29 C          64.1715   84.5526   15.1180 C.3     1  UNL1        0.0357
     30 C          62.8818   84.2273   15.8116 C.3     1  UNL1        0.1373
     31 O          61.6183   84.9315   15.4144 O.3     1  UNL1       -0.3820
     32 H          61.6893   85.8730   15.6367 H       1  UNL1        0.2104
@<TRIPOS>BOND
     1    15    14    1
     2    15    16    1
     3    16    17   ar
     4    17    18   ar
     5    18    19   ar
     6    19    22    1
     7    22    23   ar
     8    23    24   ar
     9    24    25   ar
    10    25    26   ar
    11    26    27   ar
    12    19    20   ar
    13    20    21   ar
    14    15     1    1
    15     1     2    1
    16     2     3    1
    17     3     4    1
    18     4    28    1
    19    28    29    1
    20    29    30    1
    21    30    31    1
    22     4     8    1
    23     8     9   ar
    24     9    10   ar
    25    10    11   ar
    26    11    12   ar
    27    12    13   ar
    28     4     5    1
    29     5     6    1
    30     6     7    2
    31    21    16   ar
    32     6     1   am
    33    27    22   ar
    34    13     8   ar
    35    31    32    1
@<TRIPOS>MOLECULE
*****
 32 35 0 0 0
SMALL
GASTEIGER

@<TRIPOS>ATOM
      1 N          62.2221   88.2973   11.3200 N.am    1  UNL1       -0.2438
      2 C          62.7413   87.1860   12.1833 C.3     1  UNL1        0.1009
      3 C          62.8281   85.7911   11.6386 C.3     1  UNL1        0.0661
      4 C          62.3957   85.5075   10.2306 C.3     1  UNL1        0.1578
      5 O          61.8764   86.6188    9.3672 O.3     1  UNL1       -0.4375
      6 C          61.7896   88.0137    9.9119 C.2     1  UNL1        0.4051
      7 O          61.2703   89.1250    9.0486 O.2     1  UNL1       -0.2262
      8 C          62.8154   84.1317   10.6563 C.ar    1  UNL1        0.0137
      9 C          62.1954   83.4994   11.8670 C.ar    1  UNL1       -0.0010
     10 C          62.6151   82.1236   12.2927 C.ar    1  UNL1       -0.0002
     11 C          63.6548   81.3803   11.5076 C.ar    1  UNL1       -0.0000
     12 C          64.2749   82.0125   10.2970 C.ar    1  UNL1       -0.0002
     13 C          63.8552   83.3883    9.8713 C.ar    1  UNL1       -0.0010
     14 C          60.8491   90.4576   11.7650 C.3     1  UNL1        0.0265
     15 C          62.1352   89.6922   11.8647 C.3     1  UNL1        0.1011
     16 C          63.3346   90.3217   12.5092 C.ar    1  UNL1       -0.0042
     17 C          63.7713   89.8793   13.8743 C.ar    1  UNL1       -0.0027
     18 C          64.9707   90.5088   14.5186 C.ar    1  UNL1       -0.0002
     19 C          65.7333   91.5807   13.7979 C.ar    1  UNL1        0.0015
     20 C          65.2966   92.0231   12.4328 C.ar    1  UNL1       -0.0002
     21 C          64.0973   91.3936   11.7884 C.ar    1  UNL1       -0.0027
     22 C          66.9327   92.2102   14.4424 C.ar    1  UNL1        0.0192
     23 C          66.7830   92.9635   15.7308 C.ar    1  UNL1        0.0031
     24 C          67.9824   93.5930   16.3752 C.ar    1  UNL1        0.0207
     25 C          69.3314   93.4692   15.7312 C.ar    1  UNL1        0.0989
     26 N          69.4811   92.7159   14.4427 N.ar    1  UNL1       -0.2423
     27 C          68.2817   92.0864   13.7983 C.ar    1  UNL1        0.0988
     28 C          62.1090   84.7460    8.9704 C.3     1  UNL1        0.0471
     29 C          62.6312   85.2467    7.6564 C.3     1  UNL1        0.0357
     30 C          62.2486   84.5517    6.3834 C.3     1  UNL1        0.1373
     31 O          60.8083   84.2408    6.1024 O.3     1  UNL1       -0.3820
     32 H          60.4865   83.5901    6.7457 H       1  UNL1        0.2104
@<TRIPOS>BOND
     1    15    14    1
     2    15    16    1
     3    16    17   ar
     4    17    18   ar
     5    18    19   ar
     6    19    22    1
     7    22    23   ar
     8    23    24   ar
     9    24    25   ar
    10    25    26   ar
    11    26    27   ar
    12    19    20   ar
    13    20    21   ar
    14    15     1    1
    15     1     2    1
    16     2     3    1
    17     3     4    1
    18     4    28    1
    19    28    29    1
    20    29    30    1
    21    30    31    1
    22     4     8    1
    23     8     9   ar
    24     9    10   ar
    25    10    11   ar
    26    11    12   ar
    27    12    13   ar
    28     4     5    1
    29     5     6    1
    30     6     7    2
    31    21    16   ar
    32     6     1   am
    33    27    22   ar
    34    13     8   ar
    35    31    32    1
@<TRIPOS>MOLECULE
*****
 32 35 0 0 0
SMALL
GASTEIGER

@<TRIPOS>ATOM
      1 N          62.1199   88.3050   11.2199 N.am    1  UNL1       -0.2438
      2 C          61.5636   88.2758    9.8272 C.3     1  UNL1        0.1009
      3 C          61.7155   87.0442    8.9846 C.3     1  UNL1        0.0661
      4 C          62.4237   85.8418    9.5347 C.3     1  UNL1        0.1578
      5 O          62.9800   85.8709   10.9275 O.3     1  UNL1       -0.4375
      6 C          62.8281   87.1026   11.7701 C.2     1  UNL1        0.4051
      7 O          63.3844   87.1318   13.1628 O.2     1  UNL1       -0.2262
      8 C          62.0708   85.3337    8.1682 C.ar    1  UNL1        0.0137
      9 C          60.6538   85.4110    7.6821 C.ar    1  UNL1       -0.0010
     10 C          60.3009   84.9029    6.3156 C.ar    1  UNL1       -0.0002
     11 C          61.3650   84.3175    5.4352 C.ar    1  UNL1       -0.0000
     12 C          62.7820   84.2402    5.9213 C.ar    1  UNL1       -0.0002
     13 C          63.1349   84.7483    7.2878 C.ar    1  UNL1       -0.0010
     14 C          60.6066   90.1205   12.2989 C.3     1  UNL1        0.0265
     15 C          61.9680   89.5367   12.0625 C.3     1  UNL1        0.1011
     16 C          63.1775   90.1845   12.6688 C.ar    1  UNL1       -0.0042
     17 C          63.5868   89.8444   14.0712 C.ar    1  UNL1       -0.0027
     18 C          64.7962   90.4922   14.6775 C.ar    1  UNL1       -0.0002
     19 C          65.5964   91.4801   13.8813 C.ar    1  UNL1        0.0015
     20 C          65.1871   91.8201   12.4789 C.ar    1  UNL1       -0.0002
     21 C          63.9776   91.1723   11.8727 C.ar    1  UNL1       -0.0027
     22 C          66.8059   92.1279   14.4876 C.ar    1  UNL1        0.0192
     23 C          66.6887   92.8663   15.7879 C.ar    1  UNL1        0.0031
     24 C          67.8982   93.5141   16.3942 C.ar    1  UNL1        0.0207
     25 C          69.2248   93.4234   15.7001 C.ar    1  UNL1        0.0989
     26 N          69.3420   92.6849   14.3997 N.ar    1  UNL1       -0.2423
     27 C          68.1325   92.0371   13.7935 C.ar    1  UNL1        0.0988
     28 C          63.0094   84.4628    9.6102 C.3     1  UNL1        0.0471
     29 C          63.1144   83.7641   10.9333 C.3     1  UNL1        0.0357
     30 C          63.8602   82.4669   11.0393 C.3     1  UNL1        0.1373
     31 O          65.1901   82.4208   11.7315 O.3     1  UNL1       -0.3820
     32 H          65.8360   82.9386   11.2258 H       1  UNL1        0.2104
@<TRIPOS>BOND
     1    15    14    1
     2    15    16    1
     3    16    17   ar
     4    17    18   ar
     5    18    19   ar
     6    19    22    1
     7    22    23   ar
     8    23    24   ar
     9    24    25   ar
    10    25    26   ar
    11    26    27   ar
    12    19    20   ar
    13    20    21   ar
    14    15     1    1
    15     1     2    1
    16     2     3    1
    17     3     4    1
    18     4    28    1
    19    28    29    1
    20    29    30    1
    21    30    31    1
    22     4     8    1
    23     8     9   ar
    24     9    10   ar
    25    10    11   ar
    26    11    12   ar
    27    12    13   ar
    28     4     5    1
    29     5     6    1
    30     6     7    2
    31    21    16   ar
    32     6     1   am
    33    27    22   ar
    34    13     8   ar
    35    31    32    1
@<TRIPOS>MOLECULE
*****
 32 35 0 0 0
SMALL
GASTEIGER

@<TRIPOS>ATOM
      1 N          64.4573   90.5057   14.5657 N.am    1  UNL1       -0.2438
      2 C          64.7232   90.5492   13.0901 C.3     1  UNL1        0.1009
      3 C          65.4949   91.6924   12.5004 C.3     1  UNL1        0.0661
      4 C          66.0006   92.7921   13.3863 C.3     1  UNL1        0.1578
      5 O          65.7348   92.7486   14.8620 O.3     1  UNL1       -0.4375
      6 C          64.9631   91.6055   15.4517 C.2     1  UNL1        0.4051
      7 O          64.6973   91.5620   16.9272 O.2     1  UNL1       -0.2262
      8 C          66.5027   93.2758   12.0581 C.ar    1  UNL1        0.0137
      9 C          67.2935   92.3565   11.1752 C.ar    1  UNL1       -0.0010
     10 C          67.7956   92.8402    9.8471 C.ar    1  UNL1       -0.0002
     11 C          67.5069   94.2433    9.4019 C.ar    1  UNL1       -0.0000
     12 C          66.7161   95.1626   10.2849 C.ar    1  UNL1       -0.0002
     13 C          66.2140   94.6788   11.6130 C.ar    1  UNL1       -0.0010
     14 C          62.9607   89.5391   16.4566 C.3     1  UNL1        0.0265
     15 C          63.6857   89.3626   15.1554 C.3     1  UNL1        0.1011
     16 C          63.6390   88.0429   14.4438 C.ar    1  UNL1       -0.0042
     17 C          63.1203   87.9665   13.0385 C.ar    1  UNL1       -0.0027
     18 C          63.0737   86.6468   12.3270 C.ar    1  UNL1       -0.0002
     19 C          63.5458   85.4036   13.0208 C.ar    1  UNL1        0.0015
     20 C          64.0646   85.4800   14.4261 C.ar    1  UNL1       -0.0002
     21 C          64.1112   86.7996   15.1376 C.ar    1  UNL1       -0.0027
     22 C          63.4992   84.0839   12.3092 C.ar    1  UNL1        0.0192
     23 C          64.0631   83.9578   10.9250 C.ar    1  UNL1        0.0031
     24 C          64.0165   82.6381   10.2134 C.ar    1  UNL1        0.0207
     25 C          63.4059   81.4445   10.8861 C.ar    1  UNL1        0.0989
     26 N          62.8420   81.5706   12.2704 N.ar    1  UNL1       -0.2423
     27 C          62.8887   82.8902   12.9819 C.ar    1  UNL1        0.0988
     28 C          66.6808   94.0598   13.8110 C.3     1  UNL1        0.0471
     29 C          67.5885   94.0602   15.0051 C.3     1  UNL1        0.0357
     30 C          68.7401   93.1013   15.0722 C.3     1  UNL1        0.1373
     31 O          68.5097   91.6811   15.4963 O.3     1  UNL1       -0.3820
     32 H          68.2286   91.6624   16.4245 H       1  UNL1        0.2104
@<TRIPOS>BOND
     1    15    14    1
     2    15    16    1
     3    16    17   ar
     4    17    18   ar
     5    18    19   ar
     6    19    22    1
     7    22    23   ar
     8    23    24   ar
     9    24    25   ar
    10    25    26   ar
    11    26    27   ar
    12    19    20   ar
    13    20    21   ar
    14    15     1    1
    15     1     2    1
    16     2     3    1
    17     3     4    1
    18     4    28    1
    19    28    29    1
    20    29    30    1
    21    30    31    1
    22     4     8    1
    23     8     9   ar
    24     9    10   ar
    25    10    11   ar
    26    11    12   ar
    27    12    13   ar
    28     4     5    1
    29     5     6    1
    30     6     7    2
    31    21    16   ar
    32     6     1   am
    33    27    22   ar
    34    13     8   ar
    35    31    32    1
