@<TRIPOS>MOLECULE
*****
 43 47 0 0 0
SMALL
GASTEIGER

@<TRIPOS>ATOM
      1 C          62.8395   86.6727   11.6797 C.3     1  UNL1        0.1696
      2 C          62.9554   85.6043   12.7263 C.3     1  UNL1        0.1274
      3 N          63.0819   85.7611   14.2127 N.am    1  UNL1       -0.2517
      4 C          63.1795   84.4854   14.9957 C.2     1  UNL1        0.2543
      5 O          63.3092   84.5302   16.4894 O.2     1  UNL1       -0.2695
      6 C          63.1238   87.0248   15.0197 C.ar    1  UNL1        0.0678
      7 C          63.2587   86.7350   16.4852 C.ar    1  UNL1        0.0162
      8 C          63.3192   87.8642   17.4706 C.ar    1  UNL1        0.0014
      9 C          63.2449   89.2834   16.9905 C.ar    1  UNL1        0.0014
     10 C          63.1100   89.5732   15.5250 C.ar    1  UNL1        0.0162
     11 C          63.0495   88.4440   14.5396 C.ar    1  UNL1        0.0679
     12 N          62.9149   88.9498   13.1339 N.am    1  UNL1       -0.2517
     13 C          62.8215   88.1616   11.8611 C.2     1  UNL1        0.2493
     14 O          62.6930   88.9689   10.6035 O.2     1  UNL1       -0.2727
     15 C          63.1473   83.1648   14.2849 C.ar    1  UNL1        0.0730
     16 C          61.9753   82.2458   14.4627 C.ar    1  UNL1        0.0077
     17 C          61.9431   80.9252   13.7520 C.ar    1  UNL1        0.0208
     18 C          63.0830   80.5238   12.8635 C.ar    1  UNL1        0.0989
     19 N          64.2551   81.4428   12.6858 N.ar    1  UNL1       -0.2422
     20 C          64.2873   82.7633   13.3964 C.ar    1  UNL1        0.1034
     21 C          61.3968   86.2015    9.5711 C.2     1  UNL1        0.2371
     22 O          60.1796   86.6997   10.2925 O.2     1  UNL1       -0.2737
     23 N          62.7266   86.1880   10.2647 N.am    1  UNL1       -0.2959
     24 H          63.5255   85.8610    9.7912 H       1  UNL1        0.1499
     25 C          61.2839   85.7168    8.1560 C.3     1  UNL1        0.1316
     26 C          62.4936   85.1834    7.4472 C.3     1  UNL1        0.0270
     27 C          59.1501   87.0271    7.4632 C.3     1  UNL1        0.0862
     28 N          59.9615   85.7656    7.4497 N.3     1  UNL1       -0.2902
     29 H          60.1420   85.5420    6.4710 H       1  UNL1        0.1237
     30 C          62.8676   90.4412   12.9807 C.3     1  UNL1        0.1278
     31 C          64.0208   91.1679   12.3545 C.ar    1  UNL1        0.0320
     32 C          63.9680   91.5508   10.9052 C.ar    1  UNL1        0.1363
     33 C          65.1212   92.2775   10.2789 C.ar    1  UNL1        0.0366
     34 C          66.3271   92.6213   11.1021 C.ar    1  UNL1        0.0031
     35 C          66.3798   92.2384   12.5515 C.ar    1  UNL1        0.0004
     36 C          67.5858   92.5822   13.3747 C.ar    1  UNL1        0.0067
     37 C          67.6384   92.1993   14.8240 C.ar    1  UNL1        0.0346
     38 BR         68.8444   92.5431   15.6471 Br      1  UNL1       -0.0490
     39 C          66.4853   91.4726   15.4502 C.ar    1  UNL1        0.0067
     40 C          65.2794   91.1288   14.6270 C.ar    1  UNL1        0.0003
     41 C          65.2267   91.5117   13.1777 C.ar    1  UNL1        0.0006
     42 O          62.7621   91.2070   10.0819 O.3     1  UNL1       -0.4717
     43 C          61.2984   91.0757   10.3821 C.3     1  UNL1        0.2525
@<TRIPOS>BOND
     1    27    28    1
     2    28    25    1
     3    25    26    1
     4    25    21    1
     5    21    22    2
     6    21    23   am
     7     1    23    1
     8     1     2    1
     9     2     3    1
    10     3     4   am
    11     4     5    2
    12     4    15    1
    13    15    16   ar
    14    16    17   ar
    15    17    18   ar
    16    18    19   ar
    17    19    20   ar
    18     3     6    1
    19     6     7   ar
    20     7     8   ar
    21     8     9   ar
    22     9    10   ar
    23    10    11   ar
    24    11    12    1
    25    12    30    1
    26    30    31    1
    27    31    32   ar
    28    32    42    1
    29    42    43    1
    30    32    33   ar
    31    33    34   ar
    32    34    35   ar
    33    35    36   ar
    34    36    37   ar
    35    37    38    1
    36    37    39   ar
    37    39    40   ar
    38    40    41   ar
    39    12    13   am
    40    13    14    2
    41    13     1    1
    42    20    15   ar
    43    11     6   ar
    44    41    31   ar
    45    41    35   ar
    46    28    29    1
    47    23    24    1
@<TRIPOS>MOLECULE
*****
 43 47 0 0 0
SMALL
GASTEIGER

@<TRIPOS>ATOM
      1 C          61.8049   86.0996   10.9086 C.3     1  UNL1        0.1696
      2 C          62.5177   84.9234   11.5073 C.3     1  UNL1        0.1274
      3 N          63.4218   84.8876   12.7037 N.am    1  UNL1       -0.2517
      4 C          63.9860   83.5424   13.0530 C.2     1  UNL1        0.2543
      5 O          64.9019   83.3963   14.2320 O.2     1  UNL1       -0.2695
      6 C          63.8364   86.0191   13.5969 C.ar    1  UNL1        0.0678
      7 C          64.7565   85.5499   14.6846 C.ar    1  UNL1        0.0162
      8 C          65.2895   86.5275   15.6897 C.ar    1  UNL1        0.0014
      9 C          64.9023   87.9743   15.6071 C.ar    1  UNL1        0.0014
     10 C          63.9821   88.4435   14.5194 C.ar    1  UNL1        0.0162
     11 C          63.4492   87.4659   13.5143 C.ar    1  UNL1        0.0679
     12 N          62.5518   88.1385   12.5181 N.am    1  UNL1       -0.2517
     13 C          61.8200   87.5305   11.3585 C.2     1  UNL1        0.2493
     14 O          60.9942   88.4786   10.5406 O.2     1  UNL1       -0.2727
     15 C          63.6344   82.3431   12.2234 C.ar    1  UNL1        0.0730
     16 C          63.9201   82.3399   10.7510 C.ar    1  UNL1        0.0077
     17 C          63.5685   81.1407    9.9214 C.ar    1  UNL1        0.0208
     18 C          62.9311   79.9447   10.5643 C.ar    1  UNL1        0.0989
     19 N          62.6454   79.9480   12.0368 N.ar    1  UNL1       -0.2422
     20 C          62.9970   81.1471   12.8664 C.ar    1  UNL1        0.1034
     21 C          61.6192   85.5967    8.3665 C.2     1  UNL1        0.2371
     22 O          63.1117   85.6808    8.2409 O.2     1  UNL1       -0.2737
     23 N          60.9659   85.8061    9.7003 N.am    1  UNL1       -0.2959
     24 H          59.9864   85.7509    9.7828 H       1  UNL1        0.1499
     25 C          60.7803   85.3032    7.1582 C.3     1  UNL1        0.1316
     26 C          61.3624   84.5332    6.0100 C.3     1  UNL1        0.0270
     27 C          59.0204   87.1820    7.5086 C.3     1  UNL1        0.0862
     28 N          59.3593   85.7797    7.0981 N.3     1  UNL1       -0.2902
     29 H          59.0540   85.6742    6.1305 H       1  UNL1        0.1237
     30 C          62.3610   89.6144   12.7065 C.3     1  UNL1        0.1278
     31 C          63.3092   90.5816   12.0619 C.ar    1  UNL1        0.0320
     32 C          63.2092   90.8630   10.5920 C.ar    1  UNL1        0.1363
     33 C          64.1574   91.8302    9.9473 C.ar    1  UNL1        0.0366
     34 C          65.2055   92.5159   10.7727 C.ar    1  UNL1        0.0031
     35 C          65.3054   92.2345   12.2427 C.ar    1  UNL1        0.0004
     36 C          66.3536   92.9203   13.0681 C.ar    1  UNL1        0.0067
     37 C          66.4534   92.6388   14.5380 C.ar    1  UNL1        0.0346
     38 BR         67.5016   93.3246   15.3634 Br      1  UNL1       -0.0490
     39 C          65.5053   91.6716   15.1827 C.ar    1  UNL1        0.0067
     40 C          64.4572   90.9859   14.3572 C.ar    1  UNL1        0.0003
     41 C          64.3573   91.2673   12.8874 C.ar    1  UNL1        0.0006
     42 O          62.1611   90.1773    9.7666 O.3     1  UNL1       -0.4717
     43 C          60.7232   90.4697    9.4558 C.3     1  UNL1        0.2525
@<TRIPOS>BOND
     1    27    28    1
     2    28    25    1
     3    25    26    1
     4    25    21    1
     5    21    22    2
     6    21    23   am
     7     1    23    1
     8     1     2    1
     9     2     3    1
    10     3     4   am
    11     4     5    2
    12     4    15    1
    13    15    16   ar
    14    16    17   ar
    15    17    18   ar
    16    18    19   ar
    17    19    20   ar
    18     3     6    1
    19     6     7   ar
    20     7     8   ar
    21     8     9   ar
    22     9    10   ar
    23    10    11   ar
    24    11    12    1
    25    12    30    1
    26    30    31    1
    27    31    32   ar
    28    32    42    1
    29    42    43    1
    30    32    33   ar
    31    33    34   ar
    32    34    35   ar
    33    35    36   ar
    34    36    37   ar
    35    37    38    1
    36    37    39   ar
    37    39    40   ar
    38    40    41   ar
    39    12    13   am
    40    13    14    2
    41    13     1    1
    42    20    15   ar
    43    11     6   ar
    44    41    31   ar
    45    41    35   ar
    46    28    29    1
    47    23    24    1
@<TRIPOS>MOLECULE
*****
 43 47 0 0 0
SMALL
GASTEIGER

@<TRIPOS>ATOM
      1 C          60.1356   94.2806   -1.4018 C.3     1  UNL1        0.1696
      2 C          60.8844   94.8730   -2.5587 C.3     1  UNL1        0.1274
      3 N          62.2236   95.5487   -2.5584 N.am    1  UNL1       -0.2517
      4 C          62.7054   96.0390   -3.8916 C.2     1  UNL1        0.2543
      5 O          64.0326   96.7292   -4.0020 O.2     1  UNL1       -0.2695
      6 C          63.1447   95.7989   -1.4013 C.ar    1  UNL1        0.0678
      7 C          64.3919   96.5091   -1.8373 C.ar    1  UNL1        0.0162
      8 C          65.4485   96.8555   -0.8306 C.ar    1  UNL1        0.0014
      9 C          65.2580   96.4918    0.6121 C.ar    1  UNL1        0.0014
     10 C          64.0108   95.7816    1.0481 C.ar    1  UNL1        0.0162
     11 C          62.9542   95.4352    0.0414 C.ar    1  UNL1        0.0679
     12 N          61.7954   94.7314    0.6833 N.am    1  UNL1       -0.2517
     13 C          60.5410   94.2176    0.0411 C.2     1  UNL1        0.2493
     14 O          59.5627   93.5529    0.9635 O.2     1  UNL1       -0.2727
     15 C          61.8599   95.8392   -5.1145 C.ar    1  UNL1        0.0730
     16 C          62.1120   94.6684   -6.0174 C.ar    1  UNL1        0.0077
     17 C          61.2666   94.4685   -7.2402 C.ar    1  UNL1        0.0208
     18 C          60.1691   95.4397   -7.5601 C.ar    1  UNL1        0.0989
     19 N          59.9170   96.6105   -6.6572 N.ar    1  UNL1       -0.2422
     20 C          60.7624   96.8104   -5.4343 C.ar    1  UNL1        0.1034
     21 C          57.5482   94.4670   -1.5448 C.2     1  UNL1        0.2371
     22 O          57.6210   95.8737   -1.0289 O.2     1  UNL1       -0.2737
     23 N          58.8054   93.6705   -1.7313 N.am    1  UNL1       -0.2959
     24 H          58.7576   92.7474   -2.0699 H       1  UNL1        0.1499
     25 C          56.2180   93.8570   -1.8743 C.3     1  UNL1        0.1316
     26 C          55.0289   94.7380   -2.1195 C.3     1  UNL1        0.0270
     27 C          56.0473   91.6901   -3.2975 C.3     1  UNL1        0.0862
     28 N          56.0770   92.3661   -1.9587 N.3     1  UNL1       -0.2902
     29 H          56.8620   91.9664   -1.4445 H       1  UNL1        0.1237
     30 C          61.9056   94.5126    2.1631 C.3     1  UNL1        0.1278
     31 C          62.2145   93.1457    2.6983 C.ar    1  UNL1        0.0320
     32 C          63.5205   92.4875    2.3652 C.ar    1  UNL1        0.1363
     33 C          63.8295   91.1207    2.9003 C.ar    1  UNL1        0.0366
     34 C          62.8324   90.4121    3.7685 C.ar    1  UNL1        0.0031
     35 C          61.5263   91.0703    4.1015 C.ar    1  UNL1        0.0004
     36 C          60.5292   90.3617    4.9696 C.ar    1  UNL1        0.0067
     37 C          59.2231   91.0200    5.3026 C.ar    1  UNL1        0.0346
     38 BR         58.2260   90.3113    6.1707 Br      1  UNL1       -0.0490
     39 C          58.9141   92.3868    4.7675 C.ar    1  UNL1        0.0067
     40 C          59.9113   93.0953    3.8994 C.ar    1  UNL1        0.0003
     41 C          61.2173   92.4371    3.5664 C.ar    1  UNL1        0.0006
     42 O          64.5177   93.1960    1.4971 O.3     1  UNL1       -0.4717
     43 C          65.5458   92.7395    0.5049 C.3     1  UNL1        0.2525
@<TRIPOS>BOND
     1    27    28    1
     2    28    25    1
     3    25    26    1
     4    25    21    1
     5    21    22    2
     6    21    23   am
     7     1    23    1
     8     1     2    1
     9     2     3    1
    10     3     4   am
    11     4     5    2
    12     4    15    1
    13    15    16   ar
    14    16    17   ar
    15    17    18   ar
    16    18    19   ar
    17    19    20   ar
    18     3     6    1
    19     6     7   ar
    20     7     8   ar
    21     8     9   ar
    22     9    10   ar
    23    10    11   ar
    24    11    12    1
    25    12    30    1
    26    30    31    1
    27    31    32   ar
    28    32    42    1
    29    42    43    1
    30    32    33   ar
    31    33    34   ar
    32    34    35   ar
    33    35    36   ar
    34    36    37   ar
    35    37    38    1
    36    37    39   ar
    37    39    40   ar
    38    40    41   ar
    39    12    13   am
    40    13    14    2
    41    13     1    1
    42    20    15   ar
    43    11     6   ar
    44    41    31   ar
    45    41    35   ar
    46    28    29    1
    47    23    24    1
@<TRIPOS>MOLECULE
*****
 43 47 0 0 0
SMALL
GASTEIGER

@<TRIPOS>ATOM
      1 C          63.6709   91.2084   11.1161 C.3     1  UNL1        0.1696
      2 C          63.9731   91.1623   12.5846 C.3     1  UNL1        0.1274
      3 N          63.1216   90.6288   13.6983 N.am    1  UNL1       -0.2517
      4 C          63.7121   90.7275   15.0736 C.2     1  UNL1        0.2543
      5 O          62.9427   90.2229   16.2583 O.2     1  UNL1       -0.2695
      6 C          61.7577   90.0095   13.6186 C.ar    1  UNL1        0.0678
      7 C          61.2581   89.6078   14.9747 C.ar    1  UNL1        0.0162
      8 C          59.9093   88.9674   15.1176 C.ar    1  UNL1        0.0014
      9 C          59.0600   88.7288   13.9045 C.ar    1  UNL1        0.0014
     10 C          59.5595   89.1305   12.5484 C.ar    1  UNL1        0.0162
     11 C          60.9084   89.7709   12.4055 C.ar    1  UNL1        0.0679
     12 N          61.2133   90.0926   10.9724 N.am    1  UNL1       -0.2517
     13 C          62.4426   90.7323   10.3985 C.2     1  UNL1        0.2493
     14 O          62.4440   90.9209    8.9105 O.2     1  UNL1       -0.2727
     15 C          65.0721   91.3309   15.2644 C.ar    1  UNL1        0.0730
     16 C          66.2178   90.8846   14.4053 C.ar    1  UNL1        0.0077
     17 C          67.5778   91.4880   14.5959 C.ar    1  UNL1        0.0208
     18 C          67.7921   92.5377   15.6458 C.ar    1  UNL1        0.0989
     19 N          66.6464   92.9840   16.5049 N.ar    1  UNL1       -0.2422
     20 C          65.2864   92.3806   16.3142 C.ar    1  UNL1        0.1034
     21 C          65.6322   92.8825   10.7988 C.2     1  UNL1        0.2371
     22 O          65.4591   93.3531   12.2125 O.2     1  UNL1       -0.2737
     23 N          64.7381   91.8101   10.2506 N.am    1  UNL1       -0.2959
     24 H          64.8516   91.5012    9.3227 H       1  UNL1        0.1499
     25 C          66.6994   93.4842    9.9333 C.3     1  UNL1        0.1316
     26 C          67.9755   92.7354    9.6864 C.3     1  UNL1        0.0270
     27 C          66.8755   96.0727   10.0689 C.3     1  UNL1        0.0862
     28 N          66.4905   94.8346    9.3147 N.3     1  UNL1       -0.2902
     29 H          67.0200   94.8442    8.4430 H       1  UNL1        0.1237
     30 C          60.1477   89.7261    9.9823 C.3     1  UNL1        0.1278
     31 C          60.2781   88.4718    9.1699 C.ar    1  UNL1        0.0320
     32 C          59.6364   88.3845    7.8170 C.ar    1  UNL1        0.1363
     33 C          59.7667   87.1302    7.0046 C.ar    1  UNL1        0.0366
     34 C          60.5388   85.9634    7.5452 C.ar    1  UNL1        0.0031
     35 C          61.1806   86.0507    8.8983 C.ar    1  UNL1        0.0004
     36 C          61.9527   84.8838    9.4389 C.ar    1  UNL1        0.0067
     37 C          62.5944   84.9712   10.7919 C.ar    1  UNL1        0.0346
     38 BR         63.3664   83.8043   11.3325 Br      1  UNL1       -0.0490
     39 C          62.4640   86.2255   11.6043 C.ar    1  UNL1        0.0067
     40 C          61.6919   87.3923   11.0635 C.ar    1  UNL1        0.0003
     41 C          61.0502   87.3049    9.7106 C.ar    1  UNL1        0.0006
     42 O          58.8643   89.5513    7.2763 O.3     1  UNL1       -0.4717
     43 C          58.8071   90.2350    5.9424 C.3     1  UNL1        0.2525
@<TRIPOS>BOND
     1    27    28    1
     2    28    25    1
     3    25    26    1
     4    25    21    1
     5    21    22    2
     6    21    23   am
     7     1    23    1
     8     1     2    1
     9     2     3    1
    10     3     4   am
    11     4     5    2
    12     4    15    1
    13    15    16   ar
    14    16    17   ar
    15    17    18   ar
    16    18    19   ar
    17    19    20   ar
    18     3     6    1
    19     6     7   ar
    20     7     8   ar
    21     8     9   ar
    22     9    10   ar
    23    10    11   ar
    24    11    12    1
    25    12    30    1
    26    30    31    1
    27    31    32   ar
    28    32    42    1
    29    42    43    1
    30    32    33   ar
    31    33    34   ar
    32    34    35   ar
    33    35    36   ar
    34    36    37   ar
    35    37    38    1
    36    37    39   ar
    37    39    40   ar
    38    40    41   ar
    39    12    13   am
    40    13    14    2
    41    13     1    1
    42    20    15   ar
    43    11     6   ar
    44    41    31   ar
    45    41    35   ar
    46    28    29    1
    47    23    24    1
@<TRIPOS>MOLECULE
*****
 43 47 0 0 0
SMALL
GASTEIGER

@<TRIPOS>ATOM
      1 C          62.6536   86.4120   12.3698 C.3     1  UNL1        0.1696
      2 C          62.0599   87.0437   11.1456 C.3     1  UNL1        0.1274
      3 N          62.2252   88.4477   10.6442 N.am    1  UNL1       -0.2517
      4 C          61.4940   88.7762    9.3763 C.2     1  UNL1        0.2543
      5 O          61.5922   90.1530    8.7890 O.2     1  UNL1       -0.2695
      6 C          63.0248   89.5667   11.2428 C.ar    1  UNL1        0.0678
      7 C          62.9201   90.8165   10.4200 C.ar    1  UNL1        0.0162
      8 C          63.6473   92.0575   10.8453 C.ar    1  UNL1        0.0014
      9 C          64.4793   92.0488   12.0934 C.ar    1  UNL1        0.0014
     10 C          64.5840   90.7991   12.9162 C.ar    1  UNL1        0.0162
     11 C          63.8568   89.5580   12.4909 C.ar    1  UNL1        0.0679
     12 N          64.0945   88.4282   13.4486 N.am    1  UNL1       -0.2517
     13 C          63.5591   87.0281   13.3947 C.2     1  UNL1        0.2493
     14 O          63.9855   86.1247   14.5136 O.2     1  UNL1       -0.2727
     15 C          60.6647   87.7279    8.6956 C.ar    1  UNL1        0.0730
     16 C          61.3228   86.5128    8.1123 C.ar    1  UNL1        0.0077
     17 C          60.4936   85.4645    7.4316 C.ar    1  UNL1        0.0208
     18 C          59.0060   85.6313    7.3343 C.ar    1  UNL1        0.0989
     19 N          58.3479   86.8464    7.9176 N.ar    1  UNL1       -0.2422
     20 C          59.1771   87.8947    8.5983 C.ar    1  UNL1        0.1034
     21 C          63.0709   83.8883   11.9151 C.2     1  UNL1        0.2371
     22 O          64.2071   84.2408   11.0013 O.2     1  UNL1       -0.2737
     23 N          62.2942   84.9739   12.5993 N.am    1  UNL1       -0.2959
     24 H          61.5485   84.7425   13.1991 H       1  UNL1        0.1499
     25 C          62.7115   82.4502   12.1447 C.3     1  UNL1        0.1316
     26 C          63.0570   81.4170   11.1135 C.3     1  UNL1        0.0270
     27 C          61.8614   80.5926   13.7499 C.3     1  UNL1        0.0862
     28 N          62.0067   82.0452   13.4053 N.3     1  UNL1       -0.2902
     29 H          62.5101   82.4821   14.1774 H       1  UNL1        0.1237
     30 C          64.9856   88.7398   14.6143 C.3     1  UNL1        0.1278
     31 C          64.7964   90.0135   15.3837 C.ar    1  UNL1        0.0320
     32 C          63.5059   90.2697   16.1041 C.ar    1  UNL1        0.1363
     33 C          63.3166   91.5434   16.8735 C.ar    1  UNL1        0.0366
     34 C          64.4178   92.5608   16.9225 C.ar    1  UNL1        0.0031
     35 C          65.7083   92.3045   16.2021 C.ar    1  UNL1        0.0004
     36 C          66.8094   93.3219   16.2510 C.ar    1  UNL1        0.0067
     37 C          68.0999   93.0655   15.5306 C.ar    1  UNL1        0.0346
     38 BR         69.2010   94.0829   15.5795 Br      1  UNL1       -0.0490
     39 C          68.2892   91.7919   14.7612 C.ar    1  UNL1        0.0067
     40 C          67.1880   90.7745   14.7122 C.ar    1  UNL1        0.0003
     41 C          65.8976   91.0308   15.4326 C.ar    1  UNL1        0.0006
     42 O          62.4047   89.2524   16.0552 O.3     1  UNL1       -0.4717
     43 C          62.1476   87.9597   16.7713 C.3     1  UNL1        0.2525
@<TRIPOS>BOND
     1    27    28    1
     2    28    25    1
     3    25    26    1
     4    25    21    1
     5    21    22    2
     6    21    23   am
     7     1    23    1
     8     1     2    1
     9     2     3    1
    10     3     4   am
    11     4     5    2
    12     4    15    1
    13    15    16   ar
    14    16    17   ar
    15    17    18   ar
    16    18    19   ar
    17    19    20   ar
    18     3     6    1
    19     6     7   ar
    20     7     8   ar
    21     8     9   ar
    22     9    10   ar
    23    10    11   ar
    24    11    12    1
    25    12    30    1
    26    30    31    1
    27    31    32   ar
    28    32    42    1
    29    42    43    1
    30    32    33   ar
    31    33    34   ar
    32    34    35   ar
    33    35    36   ar
    34    36    37   ar
    35    37    38    1
    36    37    39   ar
    37    39    40   ar
    38    40    41   ar
    39    12    13   am
    40    13    14    2
    41    13     1    1
    42    20    15   ar
    43    11     6   ar
    44    41    31   ar
    45    41    35   ar
    46    28    29    1
    47    23    24    1
@<TRIPOS>MOLECULE
*****
 43 47 0 0 0
SMALL
GASTEIGER

@<TRIPOS>ATOM
      1 C          63.0511   86.0333   12.2517 C.3     1  UNL1        0.1696
      2 C          62.9136   84.8813   13.2026 C.3     1  UNL1        0.1274
      3 N          62.8828   84.9051   14.7021 N.am    1  UNL1       -0.2517
      4 C          62.7331   83.5709   15.3711 C.2     1  UNL1        0.2543
      5 O          62.6910   83.4830   16.8680 O.2     1  UNL1       -0.2695
      6 C          62.9817   86.0865   15.6211 C.ar    1  UNL1        0.0678
      7 C          62.9076   85.6693   17.0599 C.ar    1  UNL1        0.0162
      8 C          62.9878   86.7016   18.1452 C.ar    1  UNL1        0.0014
      9 C          63.1421   88.1512   17.7916 C.ar    1  UNL1        0.0014
     10 C          63.2162   88.5684   16.3527 C.ar    1  UNL1        0.0162
     11 C          63.1360   87.5360   15.2674 C.ar    1  UNL1        0.0679
     12 N          63.2294   88.1621   13.9075 N.am    1  UNL1       -0.2517
     13 C          63.1917   87.4934   12.5654 C.2     1  UNL1        0.2493
     14 O          63.3101   88.4052   11.3803 O.2     1  UNL1       -0.2727
     15 C          62.6256   82.3246   14.5433 C.ar    1  UNL1        0.0730
     16 C          61.3219   81.5870   14.4642 C.ar    1  UNL1        0.0077
     17 C          61.2143   80.3407   13.6365 C.ar    1  UNL1        0.0208
     18 C          62.4105   79.8321   12.8878 C.ar    1  UNL1        0.0989
     19 N          63.7142   80.5697   12.9670 N.ar    1  UNL1       -0.2422
     20 C          63.8218   81.8159   13.7947 C.ar    1  UNL1        0.1034
     21 C          61.8353   85.9591    9.9569 C.2     1  UNL1        0.2371
     22 O          60.6265   86.5952   10.5767 O.2     1  UNL1       -0.2737
     23 N          63.0476   85.6781   10.7943 N.am    1  UNL1       -0.2959
     24 H          63.8409   85.2606   10.3875 H       1  UNL1        0.1499
     25 C          61.8318   85.6039    8.4995 C.3     1  UNL1        0.1316
     26 C          63.0524   84.9983    7.8722 C.3     1  UNL1        0.0270
     27 C          59.8802   87.1613    7.7814 C.3     1  UNL1        0.0862
     28 N          60.6078   85.8544    7.6695 N.3     1  UNL1       -0.2902
     29 H          60.8885   85.7562    6.6938 H       1  UNL1        0.1237
     30 C          63.3807   89.6543   13.8871 C.3     1  UNL1        0.1278
     31 C          63.2230   90.4066   12.5989 C.ar    1  UNL1        0.0320
     32 C          61.9326   90.3288   11.8382 C.ar    1  UNL1        0.1363
     33 C          61.7748   91.0811   10.5501 C.ar    1  UNL1        0.0366
     34 C          62.9075   91.9112   10.0227 C.ar    1  UNL1        0.0031
     35 C          64.1980   91.9889   10.7835 C.ar    1  UNL1        0.0004
     36 C          65.3307   92.8190   10.2562 C.ar    1  UNL1        0.0067
     37 C          66.6210   92.8967   11.0170 C.ar    1  UNL1        0.0346
     38 BR         67.7537   93.7267   10.4897 Br      1  UNL1       -0.0490
     39 C          66.7788   92.1444   12.3052 C.ar    1  UNL1        0.0067
     40 C          65.6460   91.3144   12.8324 C.ar    1  UNL1        0.0003
     41 C          64.3557   91.2367   12.0717 C.ar    1  UNL1        0.0006
     42 O          60.7998   89.4988   12.3654 O.3     1  UNL1       -0.4717
     43 C          59.3088   89.5522   12.2109 C.3     1  UNL1        0.2525
@<TRIPOS>BOND
     1    27    28    1
     2    28    25    1
     3    25    26    1
     4    25    21    1
     5    21    22    2
     6    21    23   am
     7     1    23    1
     8     1     2    1
     9     2     3    1
    10     3     4   am
    11     4     5    2
    12     4    15    1
    13    15    16   ar
    14    16    17   ar
    15    17    18   ar
    16    18    19   ar
    17    19    20   ar
    18     3     6    1
    19     6     7   ar
    20     7     8   ar
    21     8     9   ar
    22     9    10   ar
    23    10    11   ar
    24    11    12    1
    25    12    30    1
    26    30    31    1
    27    31    32   ar
    28    32    42    1
    29    42    43    1
    30    32    33   ar
    31    33    34   ar
    32    34    35   ar
    33    35    36   ar
    34    36    37   ar
    35    37    38    1
    36    37    39   ar
    37    39    40   ar
    38    40    41   ar
    39    12    13   am
    40    13    14    2
    41    13     1    1
    42    20    15   ar
    43    11     6   ar
    44    41    31   ar
    45    41    35   ar
    46    28    29    1
    47    23    24    1
