@<TRIPOS>MOLECULE
*****
 43 48 0 0 0
SMALL
GASTEIGER

@<TRIPOS>ATOM
      1 N          60.6834   92.6933    1.8638 N.am    1  UNL1       -0.1907
      2 C          59.5283   93.0087    0.9602 C.2     1  UNL1        0.3220
      3 O          58.0839   92.7190    1.2420 O.2     1  UNL1       -0.2512
      4 N          60.0714   93.6646   -0.2746 N.am    1  UNL1       -0.2215
      5 C          61.5622   93.7547   -0.1342 C.3     1  UNL1        0.1391
      6 C          63.0356   93.7752    0.1459 C.3     1  UNL1        0.0449
      7 C          63.9819   94.3624   -0.8588 C.3     1  UNL1        0.0746
      8 N          63.4548   94.9291   -2.1437 N.3     1  UNL1       -0.2676
      9 C          61.9814   94.9086   -2.4239 C.3     1  UNL1        0.0746
     10 C          61.0351   94.3214   -1.4191 C.3     1  UNL1        0.0449
     11 C          61.9404   93.1544    1.1874 C.2     1  UNL1        0.2529
     12 O          63.3313   93.0359    1.7362 O.2     1  UNL1       -0.2724
     13 C          59.2654   94.1460   -1.4444 C.ar    1  UNL1        0.1526
     14 N          59.0871   93.2655   -2.6456 N.ar    1  UNL1       -0.2259
     15 C          58.2811   93.7470   -3.8154 C.ar    1  UNL1        0.1209
     16 C          57.6533   95.1090   -3.7841 C.ar    1  UNL1        0.1192
     17 N          57.8316   95.9895   -2.5829 N.ar    1  UNL1       -0.2437
     18 C          58.6377   95.5080   -1.4131 C.ar    1  UNL1        0.0913
     19 C          58.8160   96.3885   -0.2119 C.3     1  UNL1        0.0551
     20 C          60.4233   90.7120    5.8957 C.ar    1  UNL1       -0.0002
     21 C          61.6761   90.5906    5.0798 C.ar    1  UNL1        0.0013
     22 C          61.7628   91.2510    3.7358 C.ar    1  UNL1        0.0154
     23 C          60.5967   92.0328    3.2078 C.ar    1  UNL1        0.0622
     24 C          59.3439   92.1542    4.0236 C.ar    1  UNL1        0.0154
     25 C          59.2572   91.4938    5.3676 C.ar    1  UNL1        0.0013
     26 C          58.6093   88.3560    6.2951 C.3     1  UNL1        0.0310
     27 C          59.4296   88.8736    7.4394 C.ar    1  UNL1       -0.0218
     28 C          59.3429   88.2131    8.7834 C.ar    1  UNL1       -0.0031
     29 C          60.1632   88.7306    9.9277 C.ar    1  UNL1        0.0137
     30 C          61.0701   89.9086    9.7280 C.ar    1  UNL1        0.0011
     31 C          61.1568   90.5690    8.3840 C.ar    1  UNL1       -0.0003
     32 C          60.3366   90.0515    7.2397 C.ar    1  UNL1       -0.0040
     33 C          60.0765   88.0701   11.2717 C.2     1  UNL1        0.0729
     34 O          60.8600   86.8207   11.5452 O.co2   1  UNL1       -0.5446
     35 O          59.2062   88.6591   12.3420 O.co2   1  UNL1       -0.5446
     36 C          64.4012   95.5164   -3.1485 C.3     1  UNL1        0.1183
     37 C          64.8298   94.7079   -4.3370 C.ar    1  UNL1        0.0712
     38 N          64.5777   93.2296   -4.3689 N.ar    1  UNL1       -0.2471
     39 C          65.0064   92.4211   -5.5575 C.ar    1  UNL1        0.0985
     40 C          65.6871   93.0909   -6.7141 C.ar    1  UNL1        0.0203
     41 C          65.9392   94.5692   -6.6823 C.ar    1  UNL1       -0.0015
     42 C          65.5106   95.3777   -5.4938 C.ar    1  UNL1       -0.0069
     43 C          65.7628   96.8560   -5.4619 C.3     1  UNL1        0.0323
@<TRIPOS>UNITY_ATOM_ATTR
34 1
charge -1
@<TRIPOS>BOND
     1    26    27    1
     2    27    28   ar
     3    28    29   ar
     4    29    33    1
     5    33    34   ar
     6    33    35   ar
     7    29    30   ar
     8    30    31   ar
     9    31    32   ar
    10    32    20    1
    11    20    21   ar
    12    21    22   ar
    13    22    23   ar
    14    23     1    1
    15     1     2   am
    16     2     3    2
    17     2     4   am
    18     4    13    1
    19    13    14   ar
    20    14    15   ar
    21    15    16   ar
    22    16    17   ar
    23    17    18   ar
    24    18    19    1
    25     4     5    1
    26     5     6    1
    27     6     7    1
    28     7     8    1
    29     8    36    1
    30    36    37    1
    31    37    38   ar
    32    38    39   ar
    33    39    40   ar
    34    40    41   ar
    35    41    42   ar
    36    42    43    1
    37     8     9    1
    38     9    10    1
    39     5    11    1
    40    11    12    2
    41    23    24   ar
    42    24    25   ar
    43    32    27   ar
    44    25    20   ar
    45    11     1   am
    46    18    13   ar
    47    10     5    1
    48    42    37   ar
@<TRIPOS>MOLECULE
*****
 43 48 0 0 0
SMALL
GASTEIGER

@<TRIPOS>ATOM
      1 N          65.1506   89.8176   13.5401 N.am    1  UNL1       -0.1907
      2 C          66.2202   90.3423   14.4516 C.2     1  UNL1        0.3220
      3 O          66.8697   89.5887   15.5741 O.2     1  UNL1       -0.2512
      4 N          66.5261   91.7529   14.0434 N.am    1  UNL1       -0.2215
      5 C          65.6456   92.1001   12.8796 C.3     1  UNL1        0.1391
      6 C          64.7065   92.3021   11.7276 C.3     1  UNL1        0.0449
      7 C          64.6807   93.6148   11.0024 C.3     1  UNL1        0.0746
      8 N          65.5941   94.7255   11.4291 N.3     1  UNL1       -0.2676
      9 C          66.5332   94.5235   12.5811 C.3     1  UNL1        0.0746
     10 C          66.5590   93.2108   13.3064 C.3     1  UNL1        0.0449
     11 C          64.7955   90.9040   12.5686 C.2     1  UNL1        0.2529
     12 O          63.7703   90.8107   11.4776 O.2     1  UNL1       -0.2724
     13 C          67.5353   92.6575   14.6861 C.ar    1  UNL1        0.1526
     14 N          67.1138   93.5960   15.7777 N.ar    1  UNL1       -0.2259
     15 C          68.1231   94.5006   16.4204 C.ar    1  UNL1        0.1209
     16 C          69.5539   94.4668   15.9714 C.ar    1  UNL1        0.1192
     17 N          69.9755   93.5284   14.8798 N.ar    1  UNL1       -0.2437
     18 C          68.9662   92.6238   14.2372 C.ar    1  UNL1        0.0913
     19 C          69.3878   91.6854   13.1456 C.3     1  UNL1        0.0551
     20 C          63.3272   85.7065   13.6932 C.ar    1  UNL1       -0.0002
     21 C          64.3442   86.1145   14.7176 C.ar    1  UNL1        0.0013
     22 C          64.9520   87.4849   14.6665 C.ar    1  UNL1        0.0154
     23 C          64.5428   88.4472   13.5911 C.ar    1  UNL1        0.0622
     24 C          63.5258   88.0392   12.5669 C.ar    1  UNL1        0.0154
     25 C          62.9181   86.6688   12.6179 C.ar    1  UNL1        0.0013
     26 C          63.5721   83.8682   11.3350 C.3     1  UNL1        0.0310
     27 C          62.8419   83.4170   12.5652 C.ar    1  UNL1       -0.0218
     28 C          62.2341   82.0465   12.6162 C.ar    1  UNL1       -0.0031
     29 C          61.5038   81.5953   13.8463 C.ar    1  UNL1        0.0137
     30 C          61.3814   82.5145   15.0254 C.ar    1  UNL1        0.0011
     31 C          61.9892   83.8848   14.9744 C.ar    1  UNL1       -0.0003
     32 C          62.7194   84.3361   13.7443 C.ar    1  UNL1       -0.0040
     33 C          60.8960   80.2249   13.8974 C.2     1  UNL1        0.0729
     34 O          59.5071   80.0399   14.4328 O.co2   1  UNL1       -0.5446
     35 O          61.6772   79.0394   13.4130 O.co2   1  UNL1       -0.5446
     36 C          65.5683   96.0383   10.7037 C.3     1  UNL1        0.1183
     37 C          65.7393   96.0755    9.2140 C.ar    1  UNL1        0.0712
     38 N          64.7517   96.8185    8.3640 N.ar    1  UNL1       -0.2471
     39 C          64.9228   96.8557    6.8742 C.ar    1  UNL1        0.0985
     40 C          66.0815   96.1499    6.2345 C.ar    1  UNL1        0.0203
     41 C          67.0692   95.4069    7.0845 C.ar    1  UNL1       -0.0015
     42 C          66.8981   95.3697    8.5742 C.ar    1  UNL1       -0.0069
     43 C          67.8857   94.6267    9.4243 C.3     1  UNL1        0.0323
@<TRIPOS>UNITY_ATOM_ATTR
34 1
charge -1
@<TRIPOS>BOND
     1    26    27    1
     2    27    28   ar
     3    28    29   ar
     4    29    33    1
     5    33    34   ar
     6    33    35   ar
     7    29    30   ar
     8    30    31   ar
     9    31    32   ar
    10    32    20    1
    11    20    21   ar
    12    21    22   ar
    13    22    23   ar
    14    23     1    1
    15     1     2   am
    16     2     3    2
    17     2     4   am
    18     4    13    1
    19    13    14   ar
    20    14    15   ar
    21    15    16   ar
    22    16    17   ar
    23    17    18   ar
    24    18    19    1
    25     4     5    1
    26     5     6    1
    27     6     7    1
    28     7     8    1
    29     8    36    1
    30    36    37    1
    31    37    38   ar
    32    38    39   ar
    33    39    40   ar
    34    40    41   ar
    35    41    42   ar
    36    42    43    1
    37     8     9    1
    38     9    10    1
    39     5    11    1
    40    11    12    2
    41    23    24   ar
    42    24    25   ar
    43    32    27   ar
    44    25    20   ar
    45    11     1   am
    46    18    13   ar
    47    10     5    1
    48    42    37   ar
