@<TRIPOS>MOLECULE
*****
 33 37 0 0 0
SMALL
GASTEIGER

@<TRIPOS>ATOM
      1 C          64.0581   89.7721   15.8386 C.ar    1  UNL1        0.1667
      2 N          63.2915   89.0380   16.8984 N.ar    1  UNL1       -0.2239
      3 C          63.1965   87.5982   16.4885 C.ar    1  UNL1        0.0893
      4 C          62.5568   86.4089   17.1413 C.ar    1  UNL1        0.0202
      5 C          62.6250   85.0638   16.4809 C.ar    1  UNL1        0.0081
      6 C          63.3330   84.9081   15.1677 C.ar    1  UNL1        0.0329
      7 C          63.9727   86.0975   14.5149 C.ar    1  UNL1        0.0146
      8 C          63.9044   87.4425   15.1753 C.ar    1  UNL1        0.0502
      9 S          64.4370   88.7860   14.7736 S.2     1  UNL1       -0.0513
     10 O          66.0335   90.8703   13.8658 O.2     1  UNL1       -0.2524
     11 C          65.3757   91.7845   14.8566 C.2     1  UNL1        0.3059
     12 N          65.7056   93.2477   14.8610 N.am    1  UNL1       -0.2872
     13 N          64.3881   91.2354   15.8430 N.am    1  UNL1       -0.2485
     14 H          65.2739   93.8477   15.5113 H       1  UNL1        0.1510
     15 H          63.9563   91.8354   16.4933 H       1  UNL1        0.1583
     16 C          66.6933   93.7968   13.8745 C.3     1  UNL1        0.1082
     17 C          66.2161   94.3527   12.5656 C.3     1  UNL1        0.0938
     18 N          66.8850   93.9415   11.2876 N.3     1  UNL1       -0.2670
     19 C          67.3645   92.5310   11.1121 C.3     1  UNL1        0.1047
     20 C          68.0334   92.1198    9.8341 C.3     1  UNL1        0.1595
     21 O          68.2230   93.1190    8.7315 O.3     1  UNL1       -0.3508
     22 C          67.7436   94.5295    8.9070 C.3     1  UNL1        0.1595
     23 C          67.0746   94.9407   10.1851 C.3     1  UNL1        0.1047
     24 S          63.4013   83.5630   14.5073 S.3     1  UNL1       -0.0470
     25 C          63.6969   83.4619   13.0402 C.ar    1  UNL1        0.2171
     26 N          64.6577   82.5054   12.3983 N.ar    1  UNL1       -0.1200
     27 N          64.6383   82.7519   10.9188 N.ar    1  UNL1       -0.1264
     28 C          63.6655   83.8607   10.6464 C.ar    1  UNL1        0.1872
     29 C          63.2342   84.5275    9.3738 C.ar    1  UNL1        0.0423
     30 C          62.2212   85.6331    9.4123 C.ar    1  UNL1        0.0257
     31 C          61.6394   86.0719   10.7234 C.ar    1  UNL1        0.1207
     32 N          62.0707   85.4051   11.9960 N.ar    1  UNL1       -0.1604
     33 N          63.0837   84.2995   11.9575 N.ar    1  UNL1       -0.1858
@<TRIPOS>BOND
     1    10    11    2
     2    11    12   am
     3    12    16    1
     4    16    17    1
     5    17    18    1
     6    18    19    1
     7    19    20    1
     8    20    21    1
     9    21    22    1
    10    22    23    1
    11    11    13   am
    12    13     1    1
    13     1     2   ar
    14     2     3   ar
    15     3     4   ar
    16     4     5   ar
    17     5     6   ar
    18     6    24    1
    19    24    25    1
    20    25    26   ar
    21    26    27   ar
    22    27    28   ar
    23    28    29   ar
    24    29    30   ar
    25    30    31   ar
    26    31    32   ar
    27    32    33   ar
    28     6     7   ar
    29     7     8   ar
    30     8     9   ar
    31    23    18    1
    32     9     1   ar
    33     8     3   ar
    34    33    25   ar
    35    33    28   ar
    36    12    14    1
    37    13    15    1
@<TRIPOS>MOLECULE
*****
 33 37 0 0 0
SMALL
GASTEIGER

@<TRIPOS>ATOM
      1 C          63.8863   88.8634   14.9056 C.ar    1  UNL1        0.1667
      2 N          63.2193   89.1991   13.6047 N.ar    1  UNL1       -0.2239
      3 C          63.8937   90.4131   13.0376 C.ar    1  UNL1        0.0893
      4 C          63.6610   91.1945   11.7786 C.ar    1  UNL1        0.0202
      5 C          64.5120   92.3905   11.4702 C.ar    1  UNL1        0.0081
      6 C          65.5958   92.8051   12.4207 C.ar    1  UNL1        0.0329
      7 C          65.8285   92.0237   13.6797 C.ar    1  UNL1        0.0146
      8 C          64.9775   90.8277   13.9882 C.ar    1  UNL1        0.0502
      9 S          64.9729   89.8699   15.1426 S.2     1  UNL1       -0.0513
     10 O          64.0315   86.0436   13.8917 O.2     1  UNL1       -0.2524
     11 C          63.6019   86.3118   15.3037 C.2     1  UNL1        0.3059
     12 N          63.2449   85.1701   16.2087 N.am    1  UNL1       -0.2872
     13 N          63.5293   87.7217   15.8106 N.am    1  UNL1       -0.2485
     14 H          62.9630   85.3461   17.1354 H       1  UNL1        0.1510
     15 H          63.2474   87.8977   16.7373 H       1  UNL1        0.1583
     16 C          63.3175   83.7602   15.7017 C.3     1  UNL1        0.1082
     17 C          62.2036   83.2062   14.8638 C.3     1  UNL1        0.0938
     18 N          62.5163   82.4211   13.6245 N.3     1  UNL1       -0.2670
     19 C          62.3761   80.9276   13.6275 C.3     1  UNL1        0.1047
     20 C          62.6888   80.1425   12.3882 C.3     1  UNL1        0.1595
     21 O          63.1417   80.8508   11.1460 O.3     1  UNL1       -0.3508
     22 C          63.2820   82.3442   11.1430 C.3     1  UNL1        0.1595
     23 C          62.9693   83.1294   12.3823 C.3     1  UNL1        0.1047
     24 S          66.4468   94.0012   12.1122 S.3     1  UNL1       -0.0470
     25 C          66.8658   94.2792   10.6990 C.ar    1  UNL1        0.2171
     26 N          68.0600   93.6969   10.0026 N.ar    1  UNL1       -0.1200
     27 N          68.0963   94.2461    8.6072 N.ar    1  UNL1       -0.1264
     28 C          66.9246   95.1678    8.4412 C.ar    1  UNL1        0.1872
     29 C          66.4518   95.9912    7.2799 C.ar    1  UNL1        0.0423
     30 C          65.2187   96.8349    7.4113 C.ar    1  UNL1        0.0257
     31 C          64.4581   96.8554    8.7041 C.ar    1  UNL1        0.1207
     32 N          64.9308   96.0321    9.8654 N.ar    1  UNL1       -0.1604
     33 N          66.1641   95.1883    9.7340 N.ar    1  UNL1       -0.1858
@<TRIPOS>BOND
     1    10    11    2
     2    11    12   am
     3    12    16    1
     4    16    17    1
     5    17    18    1
     6    18    19    1
     7    19    20    1
     8    20    21    1
     9    21    22    1
    10    22    23    1
    11    11    13   am
    12    13     1    1
    13     1     2   ar
    14     2     3   ar
    15     3     4   ar
    16     4     5   ar
    17     5     6   ar
    18     6    24    1
    19    24    25    1
    20    25    26   ar
    21    26    27   ar
    22    27    28   ar
    23    28    29   ar
    24    29    30   ar
    25    30    31   ar
    26    31    32   ar
    27    32    33   ar
    28     6     7   ar
    29     7     8   ar
    30     8     9   ar
    31    23    18    1
    32     9     1   ar
    33     8     3   ar
    34    33    25   ar
    35    33    28   ar
    36    12    14    1
    37    13    15    1
@<TRIPOS>MOLECULE
*****
 33 37 0 0 0
SMALL
GASTEIGER

@<TRIPOS>ATOM
      1 C          59.3787   88.1206    7.8686 C.ar    1  UNL1        0.1667
      2 N          60.1763   86.9542    7.3653 N.ar    1  UNL1       -0.2239
      3 C          61.0472   86.4697    8.4864 C.ar    1  UNL1        0.0893
      4 C          62.0428   85.3512    8.5726 C.ar    1  UNL1        0.0202
      5 C          62.7790   85.0996    9.8550 C.ar    1  UNL1        0.0081
      6 C          62.5196   85.9666   11.0513 C.ar    1  UNL1        0.0329
      7 C          61.5240   87.0852   10.9651 C.ar    1  UNL1        0.0146
      8 C          60.7878   87.3367    9.6827 C.ar    1  UNL1        0.0502
      9 S          59.7566   88.3570    9.3008 S.2     1  UNL1       -0.0513
     10 O          60.3145   90.1932    5.9119 O.2     1  UNL1       -0.2524
     11 C          58.8467   89.9480    6.1001 C.2     1  UNL1        0.3059
     12 N          57.8468   90.7390    5.3099 N.am    1  UNL1       -0.2872
     13 N          58.3788   88.9117    7.0784 N.am    1  UNL1       -0.2485
     14 H          56.8834   90.5781    5.4334 H       1  UNL1        0.1510
     15 H          57.4154   88.7507    7.2019 H       1  UNL1        0.1583
     16 C          58.3147   91.7754    4.3315 C.3     1  UNL1        0.1082
     17 C          59.6923   92.3557    4.4553 C.3     1  UNL1        0.0938
     18 N          60.5314   92.5639    3.2295 N.3     1  UNL1       -0.2670
     19 C          61.9444   92.0615    3.1936 C.3     1  UNL1        0.1047
     20 C          62.7834   92.2697    1.9678 C.3     1  UNL1        0.1595
     21 O          62.2096   92.9802    0.7779 O.3     1  UNL1       -0.3508
     22 C          60.7967   93.4825    0.8138 C.3     1  UNL1        0.1595
     23 C          59.9575   93.2744    2.0396 C.3     1  UNL1        0.1047
     24 S          63.2559   85.7150   12.3337 S.3     1  UNL1       -0.0470
     25 C          62.7992   84.6270   13.2597 C.ar    1  UNL1        0.2171
     26 N          62.2981   84.8144   14.6611 N.ar    1  UNL1       -0.1200
     27 N          61.9525   83.4637   15.2144 N.ar    1  UNL1       -0.1264
     28 C          62.2401   82.4414   14.1550 C.ar    1  UNL1        0.1872
     29 C          62.0931   80.9488   14.1342 C.ar    1  UNL1        0.0423
     30 C          62.4692   80.1751   12.9055 C.ar    1  UNL1        0.0257
     31 C          62.9925   80.8940   11.6974 C.ar    1  UNL1        0.1207
     32 N          63.1395   82.3866   11.7182 N.ar    1  UNL1       -0.1604
     33 N          62.7633   83.1604   12.9469 N.ar    1  UNL1       -0.1858
@<TRIPOS>BOND
     1    10    11    2
     2    11    12   am
     3    12    16    1
     4    16    17    1
     5    17    18    1
     6    18    19    1
     7    19    20    1
     8    20    21    1
     9    21    22    1
    10    22    23    1
    11    11    13   am
    12    13     1    1
    13     1     2   ar
    14     2     3   ar
    15     3     4   ar
    16     4     5   ar
    17     5     6   ar
    18     6    24    1
    19    24    25    1
    20    25    26   ar
    21    26    27   ar
    22    27    28   ar
    23    28    29   ar
    24    29    30   ar
    25    30    31   ar
    26    31    32   ar
    27    32    33   ar
    28     6     7   ar
    29     7     8   ar
    30     8     9   ar
    31    23    18    1
    32     9     1   ar
    33     8     3   ar
    34    33    25   ar
    35    33    28   ar
    36    12    14    1
    37    13    15    1
@<TRIPOS>MOLECULE
*****
 33 37 0 0 0
SMALL
GASTEIGER

@<TRIPOS>ATOM
      1 C          63.6518   89.7776   14.9524 C.ar    1  UNL1        0.1667
      2 N          63.0080   89.2944   16.2181 N.ar    1  UNL1       -0.2239
      3 C          63.1635   87.8037   16.2775 C.ar    1  UNL1        0.0893
      4 C          62.7270   86.7886   17.2919 C.ar    1  UNL1        0.0202
      5 C          63.0304   85.3354   17.0773 C.ar    1  UNL1        0.0081
      6 C          63.7705   84.8973   15.8483 C.ar    1  UNL1        0.0329
      7 C          64.2071   85.9124   14.8340 C.ar    1  UNL1        0.0146
      8 C          63.9036   87.3656   15.0486 C.ar    1  UNL1        0.0502
      9 S          64.2053   88.5855   14.2296 S.2     1  UNL1       -0.0513
     10 O          66.2889   90.9476   14.1295 O.2     1  UNL1       -0.2524
     11 C          65.0471   91.7877   14.0792 C.2     1  UNL1        0.3059
     12 N          65.1240   93.2128   13.6174 N.am    1  UNL1       -0.2872
     13 N          63.7287   91.2027   14.4907 N.am    1  UNL1       -0.2485
     14 H          64.3091   93.7642   13.5844 H       1  UNL1        0.1510
     15 H          62.9137   91.7541   14.4577 H       1  UNL1        0.1583
     16 C          66.4426   93.7978   13.2059 C.3     1  UNL1        0.1082
     17 C          66.5465   94.5965   11.9405 C.3     1  UNL1        0.0938
     18 N          67.1652   93.9870   10.7176 N.3     1  UNL1       -0.2670
     19 C          67.3844   94.8233    9.4918 C.3     1  UNL1        0.1047
     20 C          68.0031   94.2138    8.2688 C.3     1  UNL1        0.1595
     21 O          68.4025   92.7679    8.2716 O.3     1  UNL1       -0.3508
     22 C          68.1833   91.9316    9.4973 C.3     1  UNL1        0.1595
     23 C          67.5646   92.5411   10.7204 C.3     1  UNL1        0.1047
     24 S          64.0740   83.4440   15.6338 S.3     1  UNL1       -0.0470
     25 C          63.3441   82.6740   14.5735 C.ar    1  UNL1        0.2171
     26 N          62.1783   81.7564   14.7950 N.ar    1  UNL1       -0.1200
     27 N          61.7655   81.2017   13.4639 N.ar    1  UNL1       -0.1264
     28 C          62.6762   81.7765   12.4197 C.ar    1  UNL1        0.1872
     29 C          62.7431   81.5889   10.9330 C.ar    1  UNL1        0.0423
     30 C          63.7855   82.3111   10.1320 C.ar    1  UNL1        0.0257
     31 C          64.7612   83.2211   10.8177 C.ar    1  UNL1        0.1207
     32 N          64.6942   83.4087   12.3044 N.ar    1  UNL1       -0.1604
     33 N          63.6517   82.6864   13.1054 N.ar    1  UNL1       -0.1858
@<TRIPOS>BOND
     1    10    11    2
     2    11    12   am
     3    12    16    1
     4    16    17    1
     5    17    18    1
     6    18    19    1
     7    19    20    1
     8    20    21    1
     9    21    22    1
    10    22    23    1
    11    11    13   am
    12    13     1    1
    13     1     2   ar
    14     2     3   ar
    15     3     4   ar
    16     4     5   ar
    17     5     6   ar
    18     6    24    1
    19    24    25    1
    20    25    26   ar
    21    26    27   ar
    22    27    28   ar
    23    28    29   ar
    24    29    30   ar
    25    30    31   ar
    26    31    32   ar
    27    32    33   ar
    28     6     7   ar
    29     7     8   ar
    30     8     9   ar
    31    23    18    1
    32     9     1   ar
    33     8     3   ar
    34    33    25   ar
    35    33    28   ar
    36    12    14    1
    37    13    15    1
@<TRIPOS>MOLECULE
*****
 33 37 0 0 0
SMALL
GASTEIGER

@<TRIPOS>ATOM
      1 C          63.8201   88.4366   14.9498 C.ar    1  UNL1        0.1667
      2 N          63.4409   88.8547   13.5600 N.ar    1  UNL1       -0.2239
      3 C          64.1151   90.1627   13.2693 C.ar    1  UNL1        0.0893
      4 C          64.1072   91.0488   12.0590 C.ar    1  UNL1        0.0202
      5 C          64.8951   92.3251   12.0589 C.ar    1  UNL1        0.0081
      6 C          65.6910   92.7154   13.2690 C.ar    1  UNL1        0.0329
      7 C          65.6989   91.8294   14.4792 C.ar    1  UNL1        0.0146
      8 C          64.9110   90.5530   14.4794 C.ar    1  UNL1        0.0502
      9 S          64.7286   89.4862   15.5180 S.2     1  UNL1       -0.0513
     10 O          64.6976   85.7519   13.9386 O.2     1  UNL1       -0.2524
     11 C          63.8085   85.8457   15.1431 C.2     1  UNL1        0.3059
     12 N          63.3582   84.5972   15.8420 N.am    1  UNL1       -0.2872
     13 N          63.3697   87.1880   15.6487 N.am    1  UNL1       -0.2485
     14 H          62.7746   84.6588   16.6325 H       1  UNL1        0.1510
     15 H          62.7862   87.2496   16.4392 H       1  UNL1        0.1583
     16 C          63.7970   83.2548   15.3364 C.3     1  UNL1        0.1082
     17 C          62.9985   82.5548   14.2770 C.3     1  UNL1        0.0938
     18 N          63.1809   82.9228   12.8343 N.3     1  UNL1       -0.2670
     19 C          62.6502   84.2284   12.3205 C.3     1  UNL1        0.1047
     20 C          62.8326   84.5964   10.8778 C.3     1  UNL1        0.1595
     21 O          63.5457   83.6589    9.9490 O.3     1  UNL1       -0.3508
     22 C          64.0763   82.3534   10.4628 C.3     1  UNL1        0.1595
     23 C          63.8939   81.9853   11.9055 C.3     1  UNL1        0.1047
     24 S          66.4789   93.9919   13.2687 S.3     1  UNL1       -0.0470
     25 C          66.4030   94.9199   12.0928 C.ar    1  UNL1        0.2171
     26 N          65.7836   96.2861   12.0863 N.ar    1  UNL1       -0.1200
     27 N          65.9309   96.8553   10.7063 N.ar    1  UNL1       -0.1264
     28 C          66.6413   95.8409    9.8600 C.ar    1  UNL1        0.1872
     29 C          67.0603   95.8518    8.4197 C.ar    1  UNL1        0.0423
     30 C          67.7709   94.6667    7.8363 C.ar    1  UNL1        0.0257
     31 C          68.0627   93.4706    8.6931 C.ar    1  UNL1        0.1207
     32 N          67.6438   93.4597   10.1334 N.ar    1  UNL1       -0.1604
     33 N          66.9331   94.6448   10.7168 N.ar    1  UNL1       -0.1858
@<TRIPOS>BOND
     1    10    11    2
     2    11    12   am
     3    12    16    1
     4    16    17    1
     5    17    18    1
     6    18    19    1
     7    19    20    1
     8    20    21    1
     9    21    22    1
    10    22    23    1
    11    11    13   am
    12    13     1    1
    13     1     2   ar
    14     2     3   ar
    15     3     4   ar
    16     4     5   ar
    17     5     6   ar
    18     6    24    1
    19    24    25    1
    20    25    26   ar
    21    26    27   ar
    22    27    28   ar
    23    28    29   ar
    24    29    30   ar
    25    30    31   ar
    26    31    32   ar
    27    32    33   ar
    28     6     7   ar
    29     7     8   ar
    30     8     9   ar
    31    23    18    1
    32     9     1   ar
    33     8     3   ar
    34    33    25   ar
    35    33    28   ar
    36    12    14    1
    37    13    15    1
@<TRIPOS>MOLECULE
*****
 33 37 0 0 0
SMALL
GASTEIGER

@<TRIPOS>ATOM
      1 C          59.7447   87.6038    8.0682 C.ar    1  UNL1        0.1667
      2 N          60.5906   86.7145    7.2059 N.ar    1  UNL1       -0.2239
      3 C          61.5191   85.9481    8.1006 C.ar    1  UNL1        0.0893
      4 C          62.5771   84.9255    7.8095 C.ar    1  UNL1        0.0202
      5 C          63.3631   84.3186    8.9337 C.ar    1  UNL1        0.0081
      6 C          63.0909   84.7342   10.3490 C.ar    1  UNL1        0.0329
      7 C          62.0329   85.7568   10.6402 C.ar    1  UNL1        0.0146
      8 C          61.2470   86.3637    9.5160 C.ar    1  UNL1        0.0502
      9 S          60.1503   87.3870    9.4959 S.2     1  UNL1       -0.0513
     10 O          60.3088   89.4665    5.7851 O.2     1  UNL1       -0.2524
     11 C          58.9621   89.4759    6.4457 C.2     1  UNL1        0.3059
     12 N          57.8974   90.4168    5.9647 N.am    1  UNL1       -0.2872
     13 N          58.6800   88.5446    7.5872 N.am    1  UNL1       -0.2485
     14 H          57.0135   90.4230    6.3982 H       1  UNL1        0.1510
     15 H          57.7961   88.5508    8.0207 H       1  UNL1        0.1583
     16 C          58.1795   91.3482    4.8232 C.3     1  UNL1        0.1082
     17 C          59.4206   92.1905    4.8316 C.3     1  UNL1        0.0938
     18 N          60.2128   92.3715    3.5709 N.3     1  UNL1       -0.2670
     19 C          59.5456   92.8983    2.3349 C.3     1  UNL1        0.1047
     20 C          60.3378   93.0793    1.0741 C.3     1  UNL1        0.1595
     21 O          61.7972   92.7336    1.0492 O.3     1  UNL1       -0.3508
     22 C          62.4644   92.2069    2.2850 C.3     1  UNL1        0.1595
     23 C          61.6722   92.0258    3.5459 C.3     1  UNL1        0.1047
     24 S          63.8769   84.1272   11.4733 S.3     1  UNL1       -0.0470
     25 C          63.2400   83.9402   12.8184 C.ar    1  UNL1        0.2171
     26 N          62.3721   82.7883   13.2305 N.ar    1  UNL1       -0.1200
     27 N          61.9548   83.0085   14.6543 N.ar    1  UNL1       -0.1264
     28 C          62.5648   84.2965   15.1222 C.ar    1  UNL1        0.1872
     29 C          62.4996   85.0195   16.4348 C.ar    1  UNL1        0.0423
     30 C          63.2286   86.3182   16.6129 C.ar    1  UNL1        0.0257
     31 C          64.0229   86.8941   15.4782 C.ar    1  UNL1        0.1207
     32 N          64.0881   86.1711   14.1655 N.ar    1  UNL1       -0.1604
     33 N          63.3590   84.8723   13.9875 N.ar    1  UNL1       -0.1858
@<TRIPOS>BOND
     1    10    11    2
     2    11    12   am
     3    12    16    1
     4    16    17    1
     5    17    18    1
     6    18    19    1
     7    19    20    1
     8    20    21    1
     9    21    22    1
    10    22    23    1
    11    11    13   am
    12    13     1    1
    13     1     2   ar
    14     2     3   ar
    15     3     4   ar
    16     4     5   ar
    17     5     6   ar
    18     6    24    1
    19    24    25    1
    20    25    26   ar
    21    26    27   ar
    22    27    28   ar
    23    28    29   ar
    24    29    30   ar
    25    30    31   ar
    26    31    32   ar
    27    32    33   ar
    28     6     7   ar
    29     7     8   ar
    30     8     9   ar
    31    23    18    1
    32     9     1   ar
    33     8     3   ar
    34    33    25   ar
    35    33    28   ar
    36    12    14    1
    37    13    15    1
@<TRIPOS>MOLECULE
*****
 33 37 0 0 0
SMALL
GASTEIGER

@<TRIPOS>ATOM
      1 C          63.1783   90.3430   13.5465 C.ar    1  UNL1        0.1667
      2 N          62.4948   90.7130   12.2636 N.ar    1  UNL1       -0.2239
      3 C          62.2913   89.4577   11.4680 C.ar    1  UNL1        0.0893
      4 C          61.6702   89.2100   10.1253 C.ar    1  UNL1        0.0202
      5 C          61.6069   87.8165    9.5739 C.ar    1  UNL1        0.0081
      6 C          62.1646   86.6707   10.3651 C.ar    1  UNL1        0.0329
      7 C          62.7857   86.9184   11.7078 C.ar    1  UNL1        0.0146
      8 C          62.8491   88.3119   12.2592 C.ar    1  UNL1        0.0502
      9 S          63.3973   88.8591   13.5438 S.2     1  UNL1       -0.0513
     10 O          66.0766   90.7439   14.2093 O.2     1  UNL1       -0.2524
     11 C          65.0226   91.4910   14.9715 C.2     1  UNL1        0.3059
     12 N          65.4178   92.4386   16.0651 N.am    1  UNL1       -0.2872
     13 N          63.5735   91.2905   14.6401 N.am    1  UNL1       -0.2485
     14 H          64.7260   92.9289   16.5654 H       1  UNL1        0.1510
     15 H          62.8817   91.7809   15.1404 H       1  UNL1        0.1583
     16 C          66.8669   92.6390   16.3965 C.3     1  UNL1        0.1082
     17 C          67.7526   93.4019   15.4565 C.3     1  UNL1        0.0938
     18 N          67.6106   93.2160   13.9749 N.3     1  UNL1       -0.2670
     19 C          68.4330   92.1804   13.2667 C.3     1  UNL1        0.1047
     20 C          68.2910   91.9944   11.7851 C.3     1  UNL1        0.1595
     21 O          67.3267   92.8440   11.0116 O.3     1  UNL1       -0.3508
     22 C          66.5044   93.8795   11.7197 C.3     1  UNL1        0.1595
     23 C          66.6463   94.0655   13.2014 C.3     1  UNL1        0.1047
     24 S          62.1013   85.2772    9.8136 S.3     1  UNL1       -0.0470
     25 C          63.0409   84.2252   10.3238 C.ar    1  UNL1        0.2171
     26 N          64.1105   83.5375    9.5282 N.ar    1  UNL1       -0.1200
     27 N          64.8066   82.5635   10.4319 N.ar    1  UNL1       -0.1264
     28 C          64.1672   82.6493   11.7861 C.ar    1  UNL1        0.1872
     29 C          64.4376   81.9249   13.0715 C.ar    1  UNL1        0.0423
     30 C          63.6169   82.2274   14.2900 C.ar    1  UNL1        0.0257
     31 C          62.5256   83.2544   14.2232 C.ar    1  UNL1        0.1207
     32 N          62.2552   83.9788   12.9379 N.ar    1  UNL1       -0.1604
     33 N          63.0759   83.6762   11.7193 N.ar    1  UNL1       -0.1858
@<TRIPOS>BOND
     1    10    11    2
     2    11    12   am
     3    12    16    1
     4    16    17    1
     5    17    18    1
     6    18    19    1
     7    19    20    1
     8    20    21    1
     9    21    22    1
    10    22    23    1
    11    11    13   am
    12    13     1    1
    13     1     2   ar
    14     2     3   ar
    15     3     4   ar
    16     4     5   ar
    17     5     6   ar
    18     6    24    1
    19    24    25    1
    20    25    26   ar
    21    26    27   ar
    22    27    28   ar
    23    28    29   ar
    24    29    30   ar
    25    30    31   ar
    26    31    32   ar
    27    32    33   ar
    28     6     7   ar
    29     7     8   ar
    30     8     9   ar
    31    23    18    1
    32     9     1   ar
    33     8     3   ar
    34    33    25   ar
    35    33    28   ar
    36    12    14    1
    37    13    15    1
@<TRIPOS>MOLECULE
*****
 33 37 0 0 0
SMALL
GASTEIGER

@<TRIPOS>ATOM
      1 C          62.0197   86.3963   11.0797 C.ar    1  UNL1        0.1667
      2 N          61.6831   87.3120    9.9403 N.ar    1  UNL1       -0.2239
      3 C          62.2439   88.6674   10.2536 C.ar    1  UNL1        0.0893
      4 C          62.2207   89.9625    9.4972 C.ar    1  UNL1        0.0202
      5 C          62.8808   91.1797   10.0740 C.ar    1  UNL1        0.0081
      6 C          63.5641   91.1018   11.4070 C.ar    1  UNL1        0.0329
      7 C          63.5873   89.8067   12.1634 C.ar    1  UNL1        0.0146
      8 C          62.9272   88.5895   11.5866 C.ar    1  UNL1        0.0502
      9 S          62.7886   87.1859   12.0972 S.2     1  UNL1       -0.0513
     10 O          64.0375   84.4035   12.0581 O.2     1  UNL1       -0.2524
     11 C          62.6608   83.9494   11.6726 C.2     1  UNL1        0.3059
     12 N          62.2931   82.4989   11.7762 N.am    1  UNL1       -0.2872
     13 N          61.6519   84.9458   11.1834 N.am    1  UNL1       -0.2485
     14 H          61.3895   82.2008   11.5232 H       1  UNL1        0.1510
     15 H          60.7484   84.6477   10.9303 H       1  UNL1        0.1583
     16 C          63.3020   81.5025   12.2655 C.3     1  UNL1        0.1082
     17 C          63.7152   81.4998   13.7075 C.3     1  UNL1        0.0938
     18 N          63.6047   82.7547   14.5216 N.3     1  UNL1       -0.2670
     19 C          64.8150   83.6119   14.7465 C.3     1  UNL1        0.1047
     20 C          64.7045   84.8668   15.5606 C.3     1  UNL1        0.1595
     21 O          63.3837   85.2646   16.1500 O.3     1  UNL1       -0.3508
     22 C          62.1735   84.4075   15.9252 C.3     1  UNL1        0.1595
     23 C          62.2839   83.1525   15.1110 C.3     1  UNL1        0.1047
     24 S          64.2242   92.3191   11.9838 S.3     1  UNL1       -0.0470
     25 C          65.6757   92.2779   12.3601 C.ar    1  UNL1        0.2171
     26 N          66.8284   92.1285   11.4121 N.ar    1  UNL1       -0.1200
     27 N          68.0944   92.1372   12.2166 N.ar    1  UNL1       -0.1264
     28 C          67.7240   92.2920   13.6619 C.ar    1  UNL1        0.1872
     29 C          68.5547   92.3649   14.9087 C.ar    1  UNL1        0.0423
     30 C          67.8908   92.5249   16.2442 C.ar    1  UNL1        0.0257
     31 C          66.3959   92.6119   16.3329 C.ar    1  UNL1        0.1207
     32 N          65.5651   92.5389   15.0861 N.ar    1  UNL1       -0.1604
     33 N          66.2291   92.3789   13.7506 N.ar    1  UNL1       -0.1858
@<TRIPOS>BOND
     1    10    11    2
     2    11    12   am
     3    12    16    1
     4    16    17    1
     5    17    18    1
     6    18    19    1
     7    19    20    1
     8    20    21    1
     9    21    22    1
    10    22    23    1
    11    11    13   am
    12    13     1    1
    13     1     2   ar
    14     2     3   ar
    15     3     4   ar
    16     4     5   ar
    17     5     6   ar
    18     6    24    1
    19    24    25    1
    20    25    26   ar
    21    26    27   ar
    22    27    28   ar
    23    28    29   ar
    24    29    30   ar
    25    30    31   ar
    26    31    32   ar
    27    32    33   ar
    28     6     7   ar
    29     7     8   ar
    30     8     9   ar
    31    23    18    1
    32     9     1   ar
    33     8     3   ar
    34    33    25   ar
    35    33    28   ar
    36    12    14    1
    37    13    15    1
@<TRIPOS>MOLECULE
*****
 33 37 0 0 0
SMALL
GASTEIGER

@<TRIPOS>ATOM
      1 C          71.8499   77.7394   12.7706 C.ar    1  UNL1        0.1667
      2 N          72.3703   77.4044   14.1369 N.ar    1  UNL1       -0.2239
      3 C          72.6967   75.9406   14.1626 C.ar    1  UNL1        0.0893
      4 C          73.2429   75.0528   15.2413 C.ar    1  UNL1        0.0202
      5 C          73.4703   73.5953   14.9695 C.ar    1  UNL1        0.0081
      6 C          73.1515   73.0256   13.6190 C.ar    1  UNL1        0.0329
      7 C          72.6053   73.9133   12.5404 C.ar    1  UNL1        0.0146
      8 C          72.3779   75.3708   12.8122 C.ar    1  UNL1        0.0502
      9 S          71.8545   76.4825   11.9519 S.2     1  UNL1       -0.0513
     10 O          73.5014   79.2617   10.7818 O.2     1  UNL1       -0.2524
     11 C          72.2289   79.8546   11.3104 C.2     1  UNL1        0.3059
     12 N          71.7822   81.2087   10.8446 N.am    1  UNL1       -0.2872
     13 N          71.4032   79.0935   12.3047 N.am    1  UNL1       -0.2485
     14 H          70.9471   81.5978   11.1914 H       1  UNL1        0.1510
     15 H          70.5680   79.4826   12.6516 H       1  UNL1        0.1583
     16 C          72.6080   81.9698    9.8502 C.3     1  UNL1        0.1082
     17 C          72.0041   82.3993    8.5460 C.3     1  UNL1        0.0938
     18 N          72.0626   81.4877    7.3562 N.3     1  UNL1       -0.2670
     19 C          72.1372   82.0636    5.9731 C.3     1  UNL1        0.1047
     20 C          72.1956   81.1521    4.7833 C.3     1  UNL1        0.1595
     21 O          72.1794   79.6647    4.9765 O.3     1  UNL1       -0.3508
     22 C          72.1048   79.0888    6.3595 C.3     1  UNL1        0.1595
     23 C          72.0463   80.0003    7.5494 C.3     1  UNL1        0.1047
     24 S          73.3790   71.5680   13.3472 S.3     1  UNL1       -0.0470
     25 C          72.2652   70.5842   13.5515 C.ar    1  UNL1        0.2171
     26 N          72.2097   69.5225   14.6097 N.ar    1  UNL1       -0.1200
     27 N          70.9216   68.7715   14.4457 N.ar    1  UNL1       -0.1264
     28 C          70.1810   69.3693   13.2862 C.ar    1  UNL1        0.1872
     29 C          68.8578   69.0381   12.6622 C.ar    1  UNL1        0.0423
     30 C          68.3649   69.8272   11.4857 C.ar    1  UNL1        0.0257
     31 C          69.1953   70.9475   10.9330 C.ar    1  UNL1        0.1207
     32 N          70.5185   71.2787   11.5570 N.ar    1  UNL1       -0.1604
     33 N          71.0114   70.4895   12.7336 N.ar    1  UNL1       -0.1858
@<TRIPOS>BOND
     1    10    11    2
     2    11    12   am
     3    12    16    1
     4    16    17    1
     5    17    18    1
     6    18    19    1
     7    19    20    1
     8    20    21    1
     9    21    22    1
    10    22    23    1
    11    11    13   am
    12    13     1    1
    13     1     2   ar
    14     2     3   ar
    15     3     4   ar
    16     4     5   ar
    17     5     6   ar
    18     6    24    1
    19    24    25    1
    20    25    26   ar
    21    26    27   ar
    22    27    28   ar
    23    28    29   ar
    24    29    30   ar
    25    30    31   ar
    26    31    32   ar
    27    32    33   ar
    28     6     7   ar
    29     7     8   ar
    30     8     9   ar
    31    23    18    1
    32     9     1   ar
    33     8     3   ar
    34    33    25   ar
    35    33    28   ar
    36    12    14    1
    37    13    15    1
