@<TRIPOS>MOLECULE
*****
 41 44 0 0 0
SMALL
GASTEIGER

@<TRIPOS>ATOM
      1 N          62.9961   88.3316   12.0514 N.am    1  UNL1       -0.2439
      2 C          63.3746   89.7697   12.2477 C.2     1  UNL1        0.2701
      3 O          62.8543   90.8171   11.3083 O.2     1  UNL1       -0.2704
      4 C          64.2733   90.1605   13.3832 C.3     1  UNL1        0.2199
      5 C          64.0366   91.5059   12.7635 C.3     1  UNL1        0.0579
      6 O          64.7936   89.1132   14.3226 O.3     1  UNL1       -0.4686
      7 C          64.4151   87.6750   14.1264 C.ar    1  UNL1        0.1529
      8 C          64.9354   86.6277   15.0657 C.ar    1  UNL1        0.0382
      9 C          64.5570   85.1896   14.8695 C.ar    1  UNL1        0.0033
     10 C          63.6582   84.7988   13.7339 C.ar    1  UNL1        0.0053
     11 C          63.1380   85.8461   12.7945 C.ar    1  UNL1        0.0181
     12 C          63.5164   87.2842   12.9908 C.ar    1  UNL1        0.0885
     13 C          63.2798   83.3606   13.5377 C.ar    1  UNL1        0.0449
     14 C          62.4979   82.6398   14.5955 C.ar    1  UNL1        0.1293
     15 N          62.0945   83.3571   15.8496 N.pl3   1  UNL1       -0.3425
     16 N          62.1195   81.2016   14.3993 N.ar    1  UNL1       -0.1995
     17 C          62.5229   80.4843   13.1452 C.ar    1  UNL1        0.2145
     18 N          62.1445   79.0462   12.9489 N.pl3   1  UNL1       -0.3274
     19 N          63.3048   81.2052   12.0873 N.ar    1  UNL1       -0.2183
     20 C          63.6833   82.6433   12.2836 C.ar    1  UNL1        0.0645
     21 H          62.3429   84.3010   15.9784 H       1  UNL1        0.1437
     22 H          61.5813   82.8839   16.5439 H       1  UNL1        0.1437
     23 H          61.6314   78.5730   13.6432 H       1  UNL1        0.1452
     24 H          62.4094   78.5754   12.1258 H       1  UNL1        0.1452
     25 C          64.4652   83.3642   11.2257 C.3     1  UNL1        0.0460
     26 C          63.8800   83.5514    9.8573 C.3     1  UNL1        0.0067
     27 C          65.0898   91.0185   14.3036 C.ar    1  UNL1        0.0264
     28 C          64.5071   91.4908   15.6027 C.ar    1  UNL1        0.0293
     29 C          65.3236   92.3489   16.5230 C.ar    1  UNL1        0.1422
     30 F          64.7409   92.8211   17.8220 F       1  UNL1       -0.2041
     31 C          66.7228   92.7346   16.1444 C.ar    1  UNL1        0.0592
     32 C          67.3055   92.2623   14.8454 C.ar    1  UNL1        0.1422
     33 F          68.7048   92.6481   14.4668 F       1  UNL1       -0.2041
     34 C          66.4890   91.4043   13.9251 C.ar    1  UNL1        0.0293
     35 C          62.0974   87.9408   10.9158 C.3     1  UNL1        0.1833
     36 N          60.0761   89.0520   12.1116 N.am    1  UNL1       -0.3029
     37 C          60.6234   88.2056   11.0006 C.2     1  UNL1        0.2431
     38 O          59.6966   87.6242    9.9744 O.2     1  UNL1       -0.2732
     39 H          60.6844   89.4336   12.7851 H       1  UNL1        0.1495
     40 C          57.7777   88.6387   13.2502 C.3     1  UNL1        0.0230
     41 C          58.6021   89.3168   12.1964 C.3     1  UNL1        0.0895
@<TRIPOS>BOND
     1    40    41    1
     2    41    36    1
     3    36    37   am
     4    37    38    2
     5    37    35    1
     6    35     1    1
     7     1     2   am
     8     2     3    2
     9     2     4    1
    10     4     5    1
    11     4    27    1
    12    27    28   ar
    13    28    29   ar
    14    29    30    1
    15    29    31   ar
    16    31    32   ar
    17    32    33    1
    18    32    34   ar
    19     4     6    1
    20     6     7    1
    21     7     8   ar
    22     8     9   ar
    23     9    10   ar
    24    10    13    1
    25    13    14   ar
    26    14    15    1
    27    14    16   ar
    28    16    17   ar
    29    17    18    1
    30    17    19   ar
    31    19    20   ar
    32    20    25    1
    33    25    26    1
    34    10    11   ar
    35    11    12   ar
    36    12     1    1
    37    34    27   ar
    38    12     7   ar
    39    20    13   ar
    40    36    39    1
    41    15    21    1
    42    15    22    1
    43    18    23    1
    44    18    24    1
@<TRIPOS>MOLECULE
*****
 41 44 0 0 0
SMALL
GASTEIGER

@<TRIPOS>ATOM
      1 N          62.1619   88.1078   11.5482 N.am    1  UNL1       -0.2439
      2 C          62.4508   89.5794   11.5233 C.2     1  UNL1        0.2701
      3 O          61.6854   90.4785   10.5981 O.2     1  UNL1       -0.2704
      4 C          63.5052   90.1522   12.4235 C.3     1  UNL1        0.2199
      5 C          63.0511   91.4006   11.7269 C.3     1  UNL1        0.0579
      6 O          64.2706   89.2532   13.3487 O.3     1  UNL1       -0.4686
      7 C          63.9817   87.7815   13.3737 C.ar    1  UNL1        0.1529
      8 C          64.7471   86.8825   14.2989 C.ar    1  UNL1        0.0382
      9 C          64.4582   85.4109   14.3238 C.ar    1  UNL1        0.0033
     10 C          63.4039   84.8381   13.4236 C.ar    1  UNL1        0.0053
     11 C          62.6384   85.7371   12.4984 C.ar    1  UNL1        0.0181
     12 C          62.9274   87.2087   12.4735 C.ar    1  UNL1        0.0885
     13 C          63.1150   83.3664   13.4486 C.ar    1  UNL1        0.0449
     14 C          62.3017   82.7806   14.5646 C.ar    1  UNL1        0.1293
     15 N          61.7772   83.6664   15.6555 N.pl3   1  UNL1       -0.3425
     16 N          62.0128   81.3088   14.5896 N.ar    1  UNL1       -0.1995
     17 C          62.5372   80.4229   13.4986 C.ar    1  UNL1        0.2145
     18 N          62.2484   78.9513   13.5236 N.pl3   1  UNL1       -0.3274
     19 N          63.3505   81.0088   12.3826 N.ar    1  UNL1       -0.2183
     20 C          63.6394   82.4805   12.3577 C.ar    1  UNL1        0.0645
     21 H          61.9668   84.6324   15.6391 H       1  UNL1        0.1437
     22 H          61.2435   83.2819   16.3880 H       1  UNL1        0.1437
     23 H          61.7146   78.5667   14.2560 H       1  UNL1        0.1452
     24 H          62.5926   78.3698   12.8075 H       1  UNL1        0.1452
     25 C          64.4527   83.0664   11.2417 C.3     1  UNL1        0.0460
     26 C          63.8059   83.3742    9.9238 C.3     1  UNL1        0.0067
     27 C          64.4018   91.1584   13.0818 C.ar    1  UNL1        0.0264
     28 C          65.1160   92.1834   12.2513 C.ar    1  UNL1        0.0293
     29 C          66.0127   93.1897   12.9097 C.ar    1  UNL1        0.1422
     30 F          66.7268   94.2145   12.0792 F       1  UNL1       -0.2041
     31 C          66.1951   93.1711   14.3984 C.ar    1  UNL1        0.0592
     32 C          65.4809   92.1462   15.2288 C.ar    1  UNL1        0.1422
     33 F          65.6634   92.1277   16.7176 F       1  UNL1       -0.2041
     34 C          64.5843   91.1400   14.5705 C.ar    1  UNL1        0.0293
     35 C          61.1076   87.5350   10.6480 C.3     1  UNL1        0.1833
     36 N          60.4475   86.2931    8.4635 N.am    1  UNL1       -0.3029
     37 C          61.4963   86.9089    9.3415 C.2     1  UNL1        0.2431
     38 O          62.9337   86.8987    8.9129 O.2     1  UNL1       -0.2732
     39 H          59.5040   86.2998    8.7448 H       1  UNL1        0.1495
     40 C          62.0608   84.8050    7.0733 C.3     1  UNL1        0.0230
     41 C          60.8361   85.6670    7.1571 C.3     1  UNL1        0.0895
@<TRIPOS>BOND
     1    40    41    1
     2    41    36    1
     3    36    37   am
     4    37    38    2
     5    37    35    1
     6    35     1    1
     7     1     2   am
     8     2     3    2
     9     2     4    1
    10     4     5    1
    11     4    27    1
    12    27    28   ar
    13    28    29   ar
    14    29    30    1
    15    29    31   ar
    16    31    32   ar
    17    32    33    1
    18    32    34   ar
    19     4     6    1
    20     6     7    1
    21     7     8   ar
    22     8     9   ar
    23     9    10   ar
    24    10    13    1
    25    13    14   ar
    26    14    15    1
    27    14    16   ar
    28    16    17   ar
    29    17    18    1
    30    17    19   ar
    31    19    20   ar
    32    20    25    1
    33    25    26    1
    34    10    11   ar
    35    11    12   ar
    36    12     1    1
    37    34    27   ar
    38    12     7   ar
    39    20    13   ar
    40    36    39    1
    41    15    21    1
    42    15    22    1
    43    18    23    1
    44    18    24    1
@<TRIPOS>MOLECULE
*****
 41 44 0 0 0
SMALL
GASTEIGER

@<TRIPOS>ATOM
      1 N          62.1398   88.0626   11.5452 N.am    1  UNL1       -0.2439
      2 C          62.4249   89.5350   11.5207 C.2     1  UNL1        0.2701
      3 O          61.6560   90.4326   10.5969 O.2     1  UNL1       -0.2704
      4 C          63.4789   90.1099   12.4198 C.3     1  UNL1        0.2199
      5 C          63.0209   91.3576   11.7245 C.3     1  UNL1        0.0579
      6 O          64.2478   89.2125   13.3436 O.3     1  UNL1       -0.4686
      7 C          63.9626   87.7400   13.3682 C.ar    1  UNL1        0.1529
      8 C          64.7315   86.8425   14.2919 C.ar    1  UNL1        0.0382
      9 C          64.4463   85.3701   14.3165 C.ar    1  UNL1        0.0033
     10 C          63.3923   84.7952   13.4173 C.ar    1  UNL1        0.0053
     11 C          62.6235   85.6926   12.4936 C.ar    1  UNL1        0.0181
     12 C          62.9086   87.1650   12.4690 C.ar    1  UNL1        0.0885
     13 C          63.1072   83.3227   13.4420 C.ar    1  UNL1        0.0449
     14 C          62.3082   82.7321   14.5657 C.ar    1  UNL1        0.1293
     15 N          61.7943   83.6140   15.6648 N.pl3   1  UNL1       -0.3425
     16 N          62.0231   81.2596   14.5903 N.ar    1  UNL1       -0.1995
     17 C          62.5370   80.3777   13.4911 C.ar    1  UNL1        0.2145
     18 N          62.2519   78.9053   13.5157 N.pl3   1  UNL1       -0.3274
     19 N          63.3360   80.9683   12.3674 N.ar    1  UNL1       -0.2183
     20 C          63.6211   82.4408   12.3428 C.ar    1  UNL1        0.0645
     21 H          61.9814   84.5804   15.6487 H       1  UNL1        0.1437
     22 H          61.2698   83.2264   16.4024 H       1  UNL1        0.1437
     23 H          61.7274   78.5177   14.2532 H       1  UNL1        0.1452
     24 H          62.5892   78.3265   12.7943 H       1  UNL1        0.1452
     25 C          64.4202   83.0314   11.2190 C.3     1  UNL1        0.0460
     26 C          63.7506   83.3712    9.9205 C.3     1  UNL1        0.0067
     27 C          64.3738   91.1181   13.0775 C.ar    1  UNL1        0.0264
     28 C          64.5307   91.1216   14.5694 C.ar    1  UNL1        0.0293
     29 C          65.4257   92.1299   15.2270 C.ar    1  UNL1        0.1422
     30 F          65.5825   92.1333   16.7188 F       1  UNL1       -0.2041
     31 C          66.1637   93.1346   14.3930 C.ar    1  UNL1        0.0592
     32 C          66.0069   93.1311   12.9012 C.ar    1  UNL1        0.1422
     33 F          66.7450   94.1359   12.0671 F       1  UNL1       -0.2041
     34 C          65.1119   92.1229   12.2435 C.ar    1  UNL1        0.0293
     35 C          61.0858   87.4877   10.6461 C.3     1  UNL1        0.1833
     36 N          60.4272   86.2348    8.4673 N.am    1  UNL1       -0.3029
     37 C          61.4748   86.8588    9.3410 C.2     1  UNL1        0.2431
     38 O          62.9114   86.8538    8.9096 O.2     1  UNL1       -0.2732
     39 H          59.4843   86.2381    8.7505 H       1  UNL1        0.1495
     40 C          62.0892   84.8192    7.0588 C.3     1  UNL1        0.0230
     41 C          60.8162   85.6059    7.1623 C.3     1  UNL1        0.0895
@<TRIPOS>BOND
     1    40    41    1
     2    41    36    1
     3    36    37   am
     4    37    38    2
     5    37    35    1
     6    35     1    1
     7     1     2   am
     8     2     3    2
     9     2     4    1
    10     4     5    1
    11     4    27    1
    12    27    28   ar
    13    28    29   ar
    14    29    30    1
    15    29    31   ar
    16    31    32   ar
    17    32    33    1
    18    32    34   ar
    19     4     6    1
    20     6     7    1
    21     7     8   ar
    22     8     9   ar
    23     9    10   ar
    24    10    13    1
    25    13    14   ar
    26    14    15    1
    27    14    16   ar
    28    16    17   ar
    29    17    18    1
    30    17    19   ar
    31    19    20   ar
    32    20    25    1
    33    25    26    1
    34    10    11   ar
    35    11    12   ar
    36    12     1    1
    37    34    27   ar
    38    12     7   ar
    39    20    13   ar
    40    36    39    1
    41    15    21    1
    42    15    22    1
    43    18    23    1
    44    18    24    1
@<TRIPOS>MOLECULE
*****
 41 44 0 0 0
SMALL
GASTEIGER

@<TRIPOS>ATOM
      1 N          63.5628   87.3924   13.1762 N.am    1  UNL1       -0.2439
      2 C          62.6332   86.5700   12.3339 C.2     1  UNL1        0.2701
      3 O          62.3602   85.1401   12.6957 O.2     1  UNL1       -0.2704
      4 C          61.9766   87.1775   11.1298 C.3     1  UNL1        0.2199
      5 C          61.4069   85.7914   11.0657 C.3     1  UNL1        0.0579
      6 O          62.2496   88.6074   10.7681 O.3     1  UNL1       -0.4686
      7 C          63.1792   89.4299   11.6104 C.ar    1  UNL1        0.1529
      8 C          63.4521   90.8597   11.2486 C.ar    1  UNL1        0.0382
      9 C          64.3817   91.6821   12.0910 C.ar    1  UNL1        0.0033
     10 C          65.0383   91.0746   13.2951 C.ar    1  UNL1        0.0053
     11 C          64.7653   89.6448   13.6568 C.ar    1  UNL1        0.0181
     12 C          63.8358   88.8224   12.8145 C.ar    1  UNL1        0.0885
     13 C          65.9679   91.8971   14.1374 C.ar    1  UNL1        0.0449
     14 C          65.5881   92.2535   15.5441 C.ar    1  UNL1        0.1293
     15 N          64.2788   91.7875   16.1085 N.pl3   1  UNL1       -0.3425
     16 N          66.5177   93.0760   16.3864 N.ar    1  UNL1       -0.1995
     17 C          67.8271   93.5420   15.8220 C.ar    1  UNL1        0.2145
     18 N          68.7566   94.3644   16.6643 N.pl3   1  UNL1       -0.3274
     19 N          68.2068   93.1855   14.4153 N.ar    1  UNL1       -0.2183
     20 C          67.2772   92.3631   13.5730 C.ar    1  UNL1        0.0645
     21 H          63.6687   91.2477   15.5556 H       1  UNL1        0.1437
     22 H          64.0296   92.0214   17.0317 H       1  UNL1        0.1437
     23 H          68.5074   94.5984   17.5875 H       1  UNL1        0.1452
     24 H          69.6160   94.6703   16.2938 H       1  UNL1        0.1452
     25 C          67.6569   92.0067   12.1663 C.3     1  UNL1        0.0460
     26 C          67.2461   92.8960   11.0303 C.3     1  UNL1        0.0067
     27 C          61.1222   87.3036    9.9035 C.ar    1  UNL1        0.0264
     28 C          60.5591   88.6388    9.5157 C.ar    1  UNL1        0.0293
     29 C          59.7046   88.7649    8.2893 C.ar    1  UNL1        0.1422
     30 F          59.1416   90.1001    7.9016 F       1  UNL1       -0.2041
     31 C          59.4133   87.5559    7.4507 C.ar    1  UNL1        0.0592
     32 C          59.9763   86.2207    7.8385 C.ar    1  UNL1        0.1422
     33 F          59.6849   85.0117    6.9998 F       1  UNL1       -0.2041
     34 C          60.8308   86.0946    9.0648 C.ar    1  UNL1        0.0293
     35 C          64.2194   86.7849   14.3803 C.3     1  UNL1        0.1833
     36 N          64.3183   84.1900   14.4622 N.am    1  UNL1       -0.3029
     37 C          63.7184   85.4825   14.9307 C.2     1  UNL1        0.2431
     38 O          62.6177   85.4727   15.9496 O.2     1  UNL1       -0.2732
     39 H          65.0408   84.1965   13.7935 H       1  UNL1        0.1495
     40 C          62.7588   82.1203   14.2773 C.3     1  UNL1        0.0230
     41 C          63.8175   82.8876   15.0125 C.3     1  UNL1        0.0895
@<TRIPOS>BOND
     1    40    41    1
     2    41    36    1
     3    36    37   am
     4    37    38    2
     5    37    35    1
     6    35     1    1
     7     1     2   am
     8     2     3    2
     9     2     4    1
    10     4     5    1
    11     4    27    1
    12    27    28   ar
    13    28    29   ar
    14    29    30    1
    15    29    31   ar
    16    31    32   ar
    17    32    33    1
    18    32    34   ar
    19     4     6    1
    20     6     7    1
    21     7     8   ar
    22     8     9   ar
    23     9    10   ar
    24    10    13    1
    25    13    14   ar
    26    14    15    1
    27    14    16   ar
    28    16    17   ar
    29    17    18    1
    30    17    19   ar
    31    19    20   ar
    32    20    25    1
    33    25    26    1
    34    10    11   ar
    35    11    12   ar
    36    12     1    1
    37    34    27   ar
    38    12     7   ar
    39    20    13   ar
    40    36    39    1
    41    15    21    1
    42    15    22    1
    43    18    23    1
    44    18    24    1
@<TRIPOS>MOLECULE
*****
 41 44 0 0 0
SMALL
GASTEIGER

@<TRIPOS>ATOM
      1 N          63.6804   87.2378   13.0536 N.am    1  UNL1       -0.2439
      2 C          62.7741   86.4015   12.1997 C.2     1  UNL1        0.2701
      3 O          62.5941   84.9432   12.5015 O.2     1  UNL1       -0.2704
      4 C          62.0478   87.0235   11.0440 C.3     1  UNL1        0.2199
      5 C          61.5563   85.6108   10.9308 C.3     1  UNL1        0.0579
      6 O          62.2278   88.4817   10.7422 O.3     1  UNL1       -0.4686
      7 C          63.1342   89.3180   11.5961 C.ar    1  UNL1        0.1529
      8 C          63.3142   90.7762   11.2943 C.ar    1  UNL1        0.0382
      9 C          64.2206   91.6125   12.1482 C.ar    1  UNL1        0.0033
     10 C          64.9469   90.9906   13.3039 C.ar    1  UNL1        0.0053
     11 C          64.7668   89.5324   13.6057 C.ar    1  UNL1        0.0181
     12 C          63.8605   88.6961   12.7518 C.ar    1  UNL1        0.0885
     13 C          65.8532   91.8269   14.1578 C.ar    1  UNL1        0.0449
     14 C          65.4501   92.1781   15.5592 C.ar    1  UNL1        0.1293
     15 N          64.1406   91.6930   16.1068 N.pl3   1  UNL1       -0.3425
     16 N          66.3564   93.0145   16.4132 N.ar    1  UNL1       -0.1995
     17 C          67.6659   93.4996   15.8655 C.ar    1  UNL1        0.2145
     18 N          68.5723   94.3359   16.7194 N.pl3   1  UNL1       -0.3274
     19 N          68.0691   93.1483   14.4640 N.ar    1  UNL1       -0.2183
     20 C          67.1627   92.3120   13.6102 C.ar    1  UNL1        0.0645
     21 H          63.5457   91.1441   15.5464 H       1  UNL1        0.1437
     22 H          63.8760   91.9235   17.0267 H       1  UNL1        0.1437
     23 H          68.3077   94.5664   17.6392 H       1  UNL1        0.1452
     24 H          69.4317   94.6543   16.3600 H       1  UNL1        0.1452
     25 C          67.5659   91.9608   12.2087 C.3     1  UNL1        0.0460
     26 C          67.1972   92.8681   11.0725 C.3     1  UNL1        0.0067
     27 C          61.1508   87.1548    9.8490 C.ar    1  UNL1        0.0264
     28 C          60.5302   88.4800    9.5191 C.ar    1  UNL1        0.0293
     29 C          59.6331   88.6114    8.3240 C.ar    1  UNL1        0.1422
     30 F          59.0125   89.9365    7.9942 F       1  UNL1       -0.2041
     31 C          59.3568   87.4176    7.4589 C.ar    1  UNL1        0.0592
     32 C          59.9774   86.0925    7.7888 C.ar    1  UNL1        0.1422
     33 F          59.7010   84.8987    6.9236 F       1  UNL1       -0.2041
     34 C          60.8744   85.9611    8.9838 C.ar    1  UNL1        0.0293
     35 C          64.4067   86.6158   14.2093 C.3     1  UNL1        0.1833
     36 N          63.1104   87.0425   16.4201 N.am    1  UNL1       -0.3029
     37 C          63.6364   86.0926   15.3853 C.2     1  UNL1        0.2431
     38 O          63.3920   84.6194   15.5264 O.2     1  UNL1       -0.2732
     39 H          63.2708   88.0095   16.3275 H       1  UNL1        0.1495
     40 C          62.6793   86.9835   18.9815 C.3     1  UNL1        0.0230
     41 C          62.3401   86.5194   17.5960 C.3     1  UNL1        0.0895
@<TRIPOS>BOND
     1    40    41    1
     2    41    36    1
     3    36    37   am
     4    37    38    2
     5    37    35    1
     6    35     1    1
     7     1     2   am
     8     2     3    2
     9     2     4    1
    10     4     5    1
    11     4    27    1
    12    27    28   ar
    13    28    29   ar
    14    29    30    1
    15    29    31   ar
    16    31    32   ar
    17    32    33    1
    18    32    34   ar
    19     4     6    1
    20     6     7    1
    21     7     8   ar
    22     8     9   ar
    23     9    10   ar
    24    10    13    1
    25    13    14   ar
    26    14    15    1
    27    14    16   ar
    28    16    17   ar
    29    17    18    1
    30    17    19   ar
    31    19    20   ar
    32    20    25    1
    33    25    26    1
    34    10    11   ar
    35    11    12   ar
    36    12     1    1
    37    34    27   ar
    38    12     7   ar
    39    20    13   ar
    40    36    39    1
    41    15    21    1
    42    15    22    1
    43    18    23    1
    44    18    24    1
@<TRIPOS>MOLECULE
*****
 41 44 0 0 0
SMALL
GASTEIGER

@<TRIPOS>ATOM
      1 N          63.5901   87.4550   13.1892 N.am    1  UNL1       -0.2439
      2 C          62.6562   86.6414   12.3432 C.2     1  UNL1        0.2701
      3 O          62.3732   85.2122   12.7003 O.2     1  UNL1       -0.2704
      4 C          62.0053   87.2569   11.1401 C.3     1  UNL1        0.2199
      5 C          61.4264   85.8748   11.0710 C.3     1  UNL1        0.0579
      6 O          62.2882   88.6860   10.7830 O.3     1  UNL1       -0.4686
      7 C          63.2222   89.4997   11.6291 C.ar    1  UNL1        0.1529
      8 C          63.5051   90.9288   11.2720 C.ar    1  UNL1        0.0382
      9 C          64.4390   91.7424   12.1181 C.ar    1  UNL1        0.0033
     10 C          65.0900   91.1269   13.3212 C.ar    1  UNL1        0.0053
     11 C          64.8070   89.6978   13.6782 C.ar    1  UNL1        0.0181
     12 C          63.8731   88.8842   12.8322 C.ar    1  UNL1        0.0885
     13 C          66.0239   91.9406   14.1672 C.ar    1  UNL1        0.0449
     14 C          67.3937   92.2797   13.6587 C.ar    1  UNL1        0.1293
     15 N          67.8297   91.8052   12.3042 N.pl3   1  UNL1       -0.3425
     16 N          68.3276   93.0934   14.5048 N.ar    1  UNL1       -0.1995
     17 C          67.8917   93.5680   15.8593 C.ar    1  UNL1        0.2145
     18 N          68.8255   94.3816   16.7054 N.pl3   1  UNL1       -0.3274
     19 N          66.5218   93.2288   16.3678 N.ar    1  UNL1       -0.2183
     20 C          65.5879   92.4152   15.5217 C.ar    1  UNL1        0.0645
     21 H          67.2167   91.2711   11.7489 H       1  UNL1        0.1437
     22 H          68.7287   92.0277   11.9705 H       1  UNL1        0.1437
     23 H          69.7246   94.6042   16.3717 H       1  UNL1        0.1452
     24 H          68.5394   94.6931   17.5944 H       1  UNL1        0.1452
     25 C          64.2180   92.0760   16.0302 C.3     1  UNL1        0.0460
     26 C          63.9346   90.7029   16.5632 C.3     1  UNL1        0.0067
     27 C          61.1533   87.3924    9.9130 C.ar    1  UNL1        0.0264
     28 C          60.8324   86.1831    9.0855 C.ar    1  UNL1        0.0293
     29 C          59.9804   86.3186    7.8583 C.ar    1  UNL1        0.1422
     30 F          59.6595   85.1094    7.0309 F       1  UNL1       -0.2041
     31 C          59.4494   87.6634    7.4588 C.ar    1  UNL1        0.0592
     32 C          59.7704   88.8726    8.2863 C.ar    1  UNL1        0.1422
     33 F          59.2393   90.2173    7.8866 F       1  UNL1       -0.2041
     34 C          60.6223   88.7371    9.5133 C.ar    1  UNL1        0.0293
     35 C          64.2410   86.8395   14.3924 C.3     1  UNL1        0.1833
     36 N          64.3182   84.2438   14.4735 N.am    1  UNL1       -0.3029
     37 C          63.7278   85.5411   14.9409 C.2     1  UNL1        0.2431
     38 O          62.6241   85.5400   15.9567 O.2     1  UNL1       -0.2732
     39 H          65.0426   84.2446   13.8068 H       1  UNL1        0.1495
     40 C          62.6704   82.2396   14.3406 C.3     1  UNL1        0.0230
     41 C          63.8050   82.9455   15.0220 C.3     1  UNL1        0.0895
@<TRIPOS>BOND
     1    40    41    1
     2    41    36    1
     3    36    37   am
     4    37    38    2
     5    37    35    1
     6    35     1    1
     7     1     2   am
     8     2     3    2
     9     2     4    1
    10     4     5    1
    11     4    27    1
    12    27    28   ar
    13    28    29   ar
    14    29    30    1
    15    29    31   ar
    16    31    32   ar
    17    32    33    1
    18    32    34   ar
    19     4     6    1
    20     6     7    1
    21     7     8   ar
    22     8     9   ar
    23     9    10   ar
    24    10    13    1
    25    13    14   ar
    26    14    15    1
    27    14    16   ar
    28    16    17   ar
    29    17    18    1
    30    17    19   ar
    31    19    20   ar
    32    20    25    1
    33    25    26    1
    34    10    11   ar
    35    11    12   ar
    36    12     1    1
    37    34    27   ar
    38    12     7   ar
    39    20    13   ar
    40    36    39    1
    41    15    21    1
    42    15    22    1
    43    18    23    1
    44    18    24    1
@<TRIPOS>MOLECULE
*****
 41 44 0 0 0
SMALL
GASTEIGER

@<TRIPOS>ATOM
      1 N          63.7065   87.3093   13.0850 N.am    1  UNL1       -0.2439
      2 C          62.7875   86.4856   12.2325 C.2     1  UNL1        0.2701
      3 O          62.5894   85.0295   12.5334 O.2     1  UNL1       -0.2704
      4 C          62.0666   87.1180   11.0790 C.3     1  UNL1        0.2199
      5 C          61.5566   85.7119   10.9657 C.3     1  UNL1        0.0579
      6 O          62.2647   88.5740   10.7781 O.3     1  UNL1       -0.4686
      7 C          63.1838   89.3978   11.6307 C.ar    1  UNL1        0.1529
      8 C          63.3819   90.8539   11.3298 C.ar    1  UNL1        0.0382
      9 C          64.3009   91.6776   12.1823 C.ar    1  UNL1        0.0033
     10 C          65.0218   91.0452   13.3358 C.ar    1  UNL1        0.0053
     11 C          64.8237   89.5892   13.6367 C.ar    1  UNL1        0.0181
     12 C          63.9047   88.7654   12.7841 C.ar    1  UNL1        0.0885
     13 C          65.9409   91.8690   14.1883 C.ar    1  UNL1        0.0449
     14 C          67.3051   92.2351   13.6835 C.ar    1  UNL1        0.1293
     15 N          67.7504   91.7774   12.3262 N.pl3   1  UNL1       -0.3425
     16 N          68.2242   93.0589   14.5361 N.ar    1  UNL1       -0.1995
     17 C          67.7789   93.5165   15.8934 C.ar    1  UNL1        0.2145
     18 N          68.6979   94.3403   16.7459 N.pl3   1  UNL1       -0.3274
     19 N          66.4146   93.1504   16.3982 N.ar    1  UNL1       -0.2183
     20 C          65.4957   92.3267   15.5456 C.ar    1  UNL1        0.0645
     21 H          67.1472   91.2367   11.7667 H       1  UNL1        0.1437
     22 H          68.6458   92.0177   11.9949 H       1  UNL1        0.1437
     23 H          69.5933   94.5806   16.4146 H       1  UNL1        0.1452
     24 H          68.4057   94.6407   17.6368 H       1  UNL1        0.1452
     25 C          64.1313   91.9606   16.0504 C.3     1  UNL1        0.0460
     26 C          63.9049   90.6278   16.7003 C.3     1  UNL1        0.0067
     27 C          61.1686   87.2620    9.8863 C.ar    1  UNL1        0.0264
     28 C          60.8521   86.0667    9.0370 C.ar    1  UNL1        0.0293
     29 C          59.9541   86.2108    7.8441 C.ar    1  UNL1        0.1422
     30 F          59.6377   85.0155    6.9949 F       1  UNL1       -0.2041
     31 C          59.3725   87.5500    7.5006 C.ar    1  UNL1        0.0592
     32 C          59.6890   88.7453    8.3499 C.ar    1  UNL1        0.1422
     33 F          59.1073   90.0846    8.0063 F       1  UNL1       -0.2041
     34 C          60.5870   88.6012    9.5427 C.ar    1  UNL1        0.0293
     35 C          64.4274   86.6769   14.2384 C.3     1  UNL1        0.1833
     36 N          63.0784   87.1064   16.4169 N.am    1  UNL1       -0.3029
     37 C          63.6524   86.1531   15.4110 C.2     1  UNL1        0.2431
     38 O          63.4513   84.6760   15.5777 O.2     1  UNL1       -0.2732
     39 H          63.2104   88.0758   16.3076 H       1  UNL1        0.1495
     40 C          62.6701   87.0066   18.9808 C.3     1  UNL1        0.0230
     41 C          62.3033   86.5826   17.5895 C.3     1  UNL1        0.0895
@<TRIPOS>BOND
     1    40    41    1
     2    41    36    1
     3    36    37   am
     4    37    38    2
     5    37    35    1
     6    35     1    1
     7     1     2   am
     8     2     3    2
     9     2     4    1
    10     4     5    1
    11     4    27    1
    12    27    28   ar
    13    28    29   ar
    14    29    30    1
    15    29    31   ar
    16    31    32   ar
    17    32    33    1
    18    32    34   ar
    19     4     6    1
    20     6     7    1
    21     7     8   ar
    22     8     9   ar
    23     9    10   ar
    24    10    13    1
    25    13    14   ar
    26    14    15    1
    27    14    16   ar
    28    16    17   ar
    29    17    18    1
    30    17    19   ar
    31    19    20   ar
    32    20    25    1
    33    25    26    1
    34    10    11   ar
    35    11    12   ar
    36    12     1    1
    37    34    27   ar
    38    12     7   ar
    39    20    13   ar
    40    36    39    1
    41    15    21    1
    42    15    22    1
    43    18    23    1
    44    18    24    1
@<TRIPOS>MOLECULE
*****
 41 44 0 0 0
SMALL
GASTEIGER

@<TRIPOS>ATOM
      1 N          63.6048   85.6615   12.7387 N.am    1  UNL1       -0.2439
      2 C          63.2097   84.7183   11.6413 C.2     1  UNL1        0.2701
      3 O          63.4224   83.2428   11.8078 O.2     1  UNL1       -0.2704
      4 C          62.6020   85.2506   10.3774 C.3     1  UNL1        0.2199
      5 C          62.6039   83.7829   10.0676 C.3     1  UNL1        0.0579
      6 O          62.3894   86.7260   10.2109 O.3     1  UNL1       -0.4686
      7 C          62.7844   87.6693   11.3083 C.ar    1  UNL1        0.1529
      8 C          62.5718   89.1448   11.1418 C.ar    1  UNL1        0.0382
      9 C          62.9668   90.0880   12.2392 C.ar    1  UNL1        0.0033
     10 C          63.5746   89.5557   13.5030 C.ar    1  UNL1        0.0053
     11 C          63.7872   88.0803   13.6695 C.ar    1  UNL1        0.0181
     12 C          63.3922   87.1371   12.5722 C.ar    1  UNL1        0.0885
     13 C          63.9696   90.4990   14.6004 C.ar    1  UNL1        0.0449
     14 C          63.2551   90.4574   15.9186 C.ar    1  UNL1        0.1293
     15 N          62.1455   89.4725   16.1395 N.pl3   1  UNL1       -0.3425
     16 N          63.6501   91.4007   17.0160 N.ar    1  UNL1       -0.1995
     17 C          64.7598   92.3856   16.7951 C.ar    1  UNL1        0.2145
     18 N          65.1548   93.3288   17.8924 N.pl3   1  UNL1       -0.3274
     19 N          65.4743   92.4271   15.4769 N.ar    1  UNL1       -0.2183
     20 C          65.0792   91.4839   14.3796 C.ar    1  UNL1        0.0645
     21 H          61.8862   88.8534   15.4193 H       1  UNL1        0.1437
     22 H          61.6765   89.4452   17.0047 H       1  UNL1        0.1437
     23 H          64.6859   93.3015   18.7576 H       1  UNL1        0.1452
     24 H          65.8831   93.9752   17.7475 H       1  UNL1        0.1452
     25 C          65.7938   91.5254   13.0613 C.3     1  UNL1        0.0460
     26 C          66.4638   92.7897   12.6109 C.3     1  UNL1        0.0067
     27 C          61.9950   85.2731    9.0060 C.ar    1  UNL1        0.0264
     28 C          60.6461   85.8940    8.7929 C.ar    1  UNL1        0.0293
     29 C          60.0390   85.9166    7.4214 C.ar    1  UNL1        0.1422
     30 F          58.6903   86.5375    7.2084 F       1  UNL1       -0.2041
     31 C          60.7807   85.3183    6.2630 C.ar    1  UNL1        0.0592
     32 C          62.1295   84.6974    6.4761 C.ar    1  UNL1        0.1422
     33 F          62.8711   84.0991    5.3176 F       1  UNL1       -0.2041
     34 C          62.7365   84.6749    7.8475 C.ar    1  UNL1        0.0293
     35 C          64.2125   85.1293   14.0025 C.3     1  UNL1        0.1833
     36 N          63.3603   86.0947   16.2591 N.am    1  UNL1       -0.3029
     37 C          63.3742   84.9949   15.2392 C.2     1  UNL1        0.2431
     38 O          62.5497   83.7607   15.4558 O.2     1  UNL1       -0.2732
     39 H          63.9015   86.9047   16.1169 H       1  UNL1        0.1495
     40 C          62.6603   86.9576   18.6075 C.3     1  UNL1        0.0230
     41 C          62.5221   85.9603   17.4956 C.3     1  UNL1        0.0895
@<TRIPOS>BOND
     1    40    41    1
     2    41    36    1
     3    36    37   am
     4    37    38    2
     5    37    35    1
     6    35     1    1
     7     1     2   am
     8     2     3    2
     9     2     4    1
    10     4     5    1
    11     4    27    1
    12    27    28   ar
    13    28    29   ar
    14    29    30    1
    15    29    31   ar
    16    31    32   ar
    17    32    33    1
    18    32    34   ar
    19     4     6    1
    20     6     7    1
    21     7     8   ar
    22     8     9   ar
    23     9    10   ar
    24    10    13    1
    25    13    14   ar
    26    14    15    1
    27    14    16   ar
    28    16    17   ar
    29    17    18    1
    30    17    19   ar
    31    19    20   ar
    32    20    25    1
    33    25    26    1
    34    10    11   ar
    35    11    12   ar
    36    12     1    1
    37    34    27   ar
    38    12     7   ar
    39    20    13   ar
    40    36    39    1
    41    15    21    1
    42    15    22    1
    43    18    23    1
    44    18    24    1
@<TRIPOS>MOLECULE
*****
 41 44 0 0 0
SMALL
GASTEIGER

@<TRIPOS>ATOM
      1 N          62.6209   88.4169   11.3011 N.am    1  UNL1       -0.2439
      2 C          62.9371   89.8809   11.2201 C.2     1  UNL1        0.2701
      3 O          62.3179   90.7236   10.1446 O.2     1  UNL1       -0.2704
      4 C          63.8725   90.5023   12.2145 C.3     1  UNL1        0.2199
      5 C          63.5378   91.7059   11.3843 C.3     1  UNL1        0.0579
      6 O          64.4917   89.6597   13.2899 O.3     1  UNL1       -0.4686
      7 C          64.1755   88.1956   13.3709 C.ar    1  UNL1        0.1529
      8 C          64.7947   87.3530   14.4463 C.ar    1  UNL1        0.0382
      9 C          64.4785   85.8890   14.5273 C.ar    1  UNL1        0.0033
     10 C          63.5431   85.2676   13.5329 C.ar    1  UNL1        0.0053
     11 C          62.9239   86.1102   12.4575 C.ar    1  UNL1        0.0181
     12 C          63.2401   87.5742   12.3765 C.ar    1  UNL1        0.0885
     13 C          63.2269   83.8034   13.6139 C.ar    1  UNL1        0.0449
     14 C          63.8710   82.8431   12.6586 C.ar    1  UNL1        0.1293
     15 N          64.8312   83.3467   11.6221 N.pl3   1  UNL1       -0.3425
     16 N          63.5548   81.3790   12.7396 N.ar    1  UNL1       -0.1995
     17 C          62.5945   80.8753   13.7760 C.ar    1  UNL1        0.2145
     18 N          62.2783   79.4113   13.8571 N.pl3   1  UNL1       -0.3274
     19 N          61.9504   81.8358   14.7315 N.ar    1  UNL1       -0.2183
     20 C          62.2666   83.2998   14.6504 C.ar    1  UNL1        0.0645
     21 H          65.0388   84.3076   11.5689 H       1  UNL1        0.1437
     22 H          65.2540   82.7164   10.9950 H       1  UNL1        0.1437
     23 H          62.7010   78.7809   13.2301 H       1  UNL1        0.1452
     24 H          61.6481   79.0808   14.5374 H       1  UNL1        0.1452
     25 C          61.6226   84.2603   15.6058 C.3     1  UNL1        0.0460
     26 C          62.4498   84.9435   16.6541 C.3     1  UNL1        0.0067
     27 C          64.6916   91.5417   12.9206 C.ar    1  UNL1        0.0264
     28 C          64.9119   91.4447   14.4012 C.ar    1  UNL1        0.0293
     29 C          65.7311   92.4841   15.1073 C.ar    1  UNL1        0.1422
     30 F          65.9513   92.3871   16.5878 F       1  UNL1       -0.2041
     31 C          66.3300   93.6205   14.3328 C.ar    1  UNL1        0.0592
     32 C          66.1097   93.7175   12.8522 C.ar    1  UNL1        0.1422
     33 F          66.7087   94.8540   12.0778 F       1  UNL1       -0.2041
     34 C          65.2906   92.6782   12.1462 C.ar    1  UNL1        0.0293
     35 C          61.6855   87.7955   10.3066 C.3     1  UNL1        0.1833
     36 N          60.4195   88.7115    8.2310 N.am    1  UNL1       -0.3029
     37 C          60.5680   88.6061    9.7199 C.2     1  UNL1        0.2431
     38 O          59.5992   89.3114   10.6220 O.2     1  UNL1       -0.2732
     39 H          61.0554   88.2485    7.6389 H       1  UNL1        0.1495
     40 C          59.2610   89.7846    6.1680 C.3     1  UNL1        0.0230
     41 C          59.3021   89.5221    7.6442 C.3     1  UNL1        0.0895
@<TRIPOS>BOND
     1    40    41    1
     2    41    36    1
     3    36    37   am
     4    37    38    2
     5    37    35    1
     6    35     1    1
     7     1     2   am
     8     2     3    2
     9     2     4    1
    10     4     5    1
    11     4    27    1
    12    27    28   ar
    13    28    29   ar
    14    29    30    1
    15    29    31   ar
    16    31    32   ar
    17    32    33    1
    18    32    34   ar
    19     4     6    1
    20     6     7    1
    21     7     8   ar
    22     8     9   ar
    23     9    10   ar
    24    10    13    1
    25    13    14   ar
    26    14    15    1
    27    14    16   ar
    28    16    17   ar
    29    17    18    1
    30    17    19   ar
    31    19    20   ar
    32    20    25    1
    33    25    26    1
    34    10    11   ar
    35    11    12   ar
    36    12     1    1
    37    34    27   ar
    38    12     7   ar
    39    20    13   ar
    40    36    39    1
    41    15    21    1
    42    15    22    1
    43    18    23    1
    44    18    24    1
