@<TRIPOS>MOLECULE
*****
 39 43 0 0 0
SMALL
GASTEIGER

@<TRIPOS>ATOM
      1 C          62.9648   86.4958   13.0724 C.ar    1  UNL1        0.0502
      2 C          63.7789   86.9628   14.2424 C.ar    1  UNL1        0.0143
      3 C          64.3665   88.3428   14.2442 C.ar    1  UNL1       -0.0030
      4 C          64.1399   89.2560   13.0760 C.ar    1  UNL1       -0.0223
      5 C          63.3258   88.7891   11.9059 C.ar    1  UNL1       -0.0034
      6 C          62.7382   87.4090   11.9041 C.ar    1  UNL1        0.0089
      7 C          64.7276   90.6362   13.0778 C.3     1  UNL1        0.0257
      8 C          64.4247   91.5818   11.9536 C.3     1  UNL1        0.0259
      9 C          65.0124   92.9619   11.9554 C.3     1  UNL1        0.0938
     10 N          65.9028   93.3964   13.0816 N.am    1  UNL1       -0.2784
     11 C          66.4904   94.7765   13.0835 C.2     1  UNL1        0.2420
     12 O          67.3809   95.2110   14.2097 O.2     1  UNL1       -0.2734
     13 C          66.2056   92.4507   14.2059 C.3     1  UNL1        0.0938
     14 C          65.6180   91.0706   14.2040 C.3     1  UNL1        0.0259
     15 C          66.1876   95.7221   11.9592 C.3     1  UNL1        0.1588
     16 N          66.6519   95.4066   10.5682 N.3     1  UNL1       -0.2607
     17 C          67.4964   94.1928   10.3166 C.3     1  UNL1        0.1050
     18 C          67.9606   93.8773    8.9256 C.3     1  UNL1        0.1595
     19 O          67.5804   94.7757    7.7862 O.3     1  UNL1       -0.3508
     20 C          66.7359   95.9896    8.0377 C.3     1  UNL1        0.1595
     21 C          66.2716   96.3050    9.4287 C.3     1  UNL1        0.1050
     22 C          61.9241   86.9420   10.7340 C.2     1  UNL1       -0.0253
     23 C          62.5115   85.9739    9.7502 C.2     1  UNL1       -0.0303
     24 C          61.6974   85.5069    8.5801 C.3     1  UNL1        0.0257
     25 C          60.2958   86.0079    8.3938 C.3     1  UNL1        0.0050
     26 C          59.7084   86.9760    9.3776 C.3     1  UNL1        0.0050
     27 C          60.5226   87.4430   10.5477 C.3     1  UNL1        0.0261
     28 C          63.2260   83.9386   13.4500 C.2     1  UNL1        0.2837
     29 O          64.6625   84.1417   13.8314 O.2     1  UNL1       -0.2665
     30 N          62.3772   85.1156   13.0705 N.am    1  UNL1       -0.2779
     31 H          61.4344   84.9824   12.8202 H       1  UNL1        0.1553
     32 C          61.1293   80.6918   13.8064 C.ar    1  UNL1        0.1469
     33 C          62.3393   80.1776   13.0842 C.ar    1  UNL1        0.1282
     34 N          63.2720   81.3313   12.8629 N.ar    1  UNL1       -0.2205
     35 C          62.6385   82.5585   13.4482 C.ar    1  UNL1        0.1958
     36 N          61.3142   82.1633   14.0313 N.ar    1  UNL1       -0.3257
     37 H          60.6781   82.7642   14.4824 H       1  UNL1        0.1682
     38 N          58.7561   79.0632   14.6524 N.1     1  UNL1       -0.1893
     39 C          59.9427   79.8775   14.2294 C.1     1  UNL1        0.1194
@<TRIPOS>BOND
     1    38    39    3
     2    39    32    1
     3    32    33   ar
     4    33    34   ar
     5    34    35   ar
     6    35    28    1
     7    28    29    2
     8    28    30   am
     9    30     1    1
    10     1     2   ar
    11     2     3   ar
    12     3     4   ar
    13     4     7    1
    14     7     8    1
    15     8     9    1
    16     9    10    1
    17    10    11   am
    18    11    12    2
    19    11    15    1
    20    15    16    1
    21    16    17    1
    22    17    18    1
    23    18    19    1
    24    19    20    1
    25    20    21    1
    26    10    13    1
    27    13    14    1
    28     4     5   ar
    29     5     6   ar
    30     6    22    1
    31    22    23    2
    32    23    24    1
    33    24    25    1
    34    25    26    1
    35    26    27    1
    36    35    36   ar
    37    36    32   ar
    38     6     1   ar
    39    27    22    1
    40    14     7    1
    41    21    16    1
    42    30    31    1
    43    36    37    1
@<TRIPOS>MOLECULE
*****
 39 43 0 0 0
SMALL
GASTEIGER

@<TRIPOS>ATOM
      1 C          60.7446   87.2843    9.9883 C.ar    1  UNL1        0.0502
      2 C          59.8620   86.8123    8.8712 C.ar    1  UNL1        0.0143
      3 C          59.6128   87.6983    7.6868 C.ar    1  UNL1       -0.0030
      4 C          60.2463   89.0563    7.6195 C.ar    1  UNL1       -0.0223
      5 C          61.1289   89.5283    8.7367 C.ar    1  UNL1       -0.0034
      6 C          61.3781   88.6423    9.9211 C.ar    1  UNL1        0.0089
      7 C          59.9970   89.9423    6.4350 C.3     1  UNL1        0.0257
      8 C          61.1518   90.5666    5.7092 C.3     1  UNL1        0.0259
      9 C          60.9026   91.4526    4.5247 C.3     1  UNL1        0.0938
     10 N          59.4986   91.7142    4.0661 N.am    1  UNL1       -0.2784
     11 C          59.2493   92.6002    2.8817 C.2     1  UNL1        0.2420
     12 O          57.8453   92.8619    2.4230 O.2     1  UNL1       -0.2734
     13 C          58.3438   91.0899    4.7919 C.3     1  UNL1        0.0938
     14 C          58.5931   90.2039    5.9764 C.3     1  UNL1        0.0259
     15 C          60.4040   93.2245    2.1559 C.3     1  UNL1        0.1588
     16 N          60.2229   93.7356    0.7573 N.3     1  UNL1       -0.2607
     17 C          60.0900   95.2088    0.5085 C.3     1  UNL1        0.1050
     18 C          59.9089   95.7198   -0.8901 C.3     1  UNL1        0.1595
     19 O          59.8607   94.7577   -2.0398 O.3     1  UNL1       -0.3508
     20 C          59.9936   93.2845   -1.7910 C.3     1  UNL1        0.1595
     21 C          60.1747   92.7734   -0.3925 C.3     1  UNL1        0.1050
     22 C          62.2608   89.1143   11.0383 C.2     1  UNL1       -0.0253
     23 C          62.5601   90.5761   11.1912 C.2     1  UNL1       -0.0303
     24 C          63.4428   91.0481   12.3083 C.3     1  UNL1        0.0257
     25 C          64.0261   90.0583   13.2727 C.3     1  UNL1        0.0050
     26 C          63.7268   88.5964   13.1199 C.3     1  UNL1        0.0050
     27 C          62.8441   88.1244   12.0026 C.3     1  UNL1        0.0261
     28 C          62.0465   85.3319   11.1034 C.2     1  UNL1        0.2837
     29 O          62.8499   85.1515    9.8496 O.2     1  UNL1       -0.2665
     30 N          60.9938   86.3983   11.1728 N.am    1  UNL1       -0.2779
     31 H          60.4666   86.5167   11.9957 H       1  UNL1        0.1553
     32 C          62.6832   82.4823   13.6607 C.ar    1  UNL1        0.1469
     33 C          62.6753   83.6826   14.5603 C.ar    1  UNL1        0.1282
     34 N          62.4358   84.8961   13.7118 N.ar    1  UNL1       -0.2205
     35 C          62.2957   84.4459   12.2878 C.ar    1  UNL1        0.1958
     36 N          62.4486   82.9540   12.2563 N.ar    1  UNL1       -0.3257
     37 H          62.4029   82.3845   11.4545 H       1  UNL1        0.1682
     38 N          63.0958   79.6376   14.5196 N.1     1  UNL1       -0.1893
     39 C          62.8895   81.0599   14.0901 C.1     1  UNL1        0.1194
@<TRIPOS>BOND
     1    38    39    3
     2    39    32    1
     3    32    33   ar
     4    33    34   ar
     5    34    35   ar
     6    35    28    1
     7    28    29    2
     8    28    30   am
     9    30     1    1
    10     1     2   ar
    11     2     3   ar
    12     3     4   ar
    13     4     7    1
    14     7     8    1
    15     8     9    1
    16     9    10    1
    17    10    11   am
    18    11    12    2
    19    11    15    1
    20    15    16    1
    21    16    17    1
    22    17    18    1
    23    18    19    1
    24    19    20    1
    25    20    21    1
    26    10    13    1
    27    13    14    1
    28     4     5   ar
    29     5     6   ar
    30     6    22    1
    31    22    23    2
    32    23    24    1
    33    24    25    1
    34    25    26    1
    35    26    27    1
    36    35    36   ar
    37    36    32   ar
    38     6     1   ar
    39    27    22    1
    40    14     7    1
    41    21    16    1
    42    30    31    1
    43    36    37    1
@<TRIPOS>MOLECULE
*****
 39 43 0 0 0
SMALL
GASTEIGER

@<TRIPOS>ATOM
      1 C          60.6957   87.6104    9.5624 C.ar    1  UNL1        0.0502
      2 C          59.8288   87.1228    8.4396 C.ar    1  UNL1        0.0143
      3 C          59.6186   87.9807    7.2273 C.ar    1  UNL1       -0.0030
      4 C          60.2754   89.3263    7.1378 C.ar    1  UNL1       -0.0223
      5 C          61.1423   89.8140    8.2606 C.ar    1  UNL1       -0.0034
      6 C          61.3524   88.9560    9.4729 C.ar    1  UNL1        0.0089
      7 C          60.0652   90.1843    5.9254 C.3     1  UNL1        0.0257
      8 C          61.2148   90.4827    5.0093 C.3     1  UNL1        0.0259
      9 C          61.0046   91.3407    3.7970 C.3     1  UNL1        0.0938
     10 N          59.6448   91.9002    3.5008 N.am    1  UNL1       -0.2784
     11 C          59.4345   92.7581    2.2885 C.2     1  UNL1        0.2420
     12 O          58.0747   93.3177    1.9923 O.2     1  UNL1       -0.2734
     13 C          58.4951   91.6018    4.4169 C.3     1  UNL1        0.0938
     14 C          58.7053   90.7438    5.6292 C.3     1  UNL1        0.0259
     15 C          60.5842   93.0565    1.3724 C.3     1  UNL1        0.1588
     16 N          61.4052   94.2950    1.5780 N.3     1  UNL1       -0.2607
     17 C          62.9028   94.2108    1.5766 C.3     1  UNL1        0.1050
     18 C          63.7238   95.4491    1.7822 C.3     1  UNL1        0.1595
     19 O          63.0472   96.7717    1.9894 O.3     1  UNL1       -0.3508
     20 C          61.5496   96.8560    1.9908 C.3     1  UNL1        0.1595
     21 C          60.7286   95.6176    1.7852 C.3     1  UNL1        0.1050
     22 C          62.2194   89.4436   10.5957 C.2     1  UNL1       -0.0253
     23 C          62.5636   88.5253   11.7306 C.2     1  UNL1       -0.0303
     24 C          63.4305   89.0128   12.8534 C.3     1  UNL1        0.0257
     25 C          63.9532   90.4188   12.8413 C.3     1  UNL1        0.0050
     26 C          63.6090   91.3372   11.7064 C.3     1  UNL1        0.0050
     27 C          62.7420   90.8495   10.5835 C.3     1  UNL1        0.0261
     28 C          61.9570   85.6824   10.7632 C.2     1  UNL1        0.2837
     29 O          62.7980   85.4704    9.5393 O.2     1  UNL1       -0.2665
     30 N          60.9059   86.7524   10.7748 N.am    1  UNL1       -0.2779
     31 H          60.3539   86.8916   11.5780 H       1  UNL1        0.1553
     32 C          62.5895   82.9055   13.4002 C.ar    1  UNL1        0.1469
     33 C          62.3920   84.1029   14.2819 C.ar    1  UNL1        0.1282
     34 N          62.1310   85.2888   13.4014 N.ar    1  UNL1       -0.2205
     35 C          62.1672   84.8245   11.9755 C.ar    1  UNL1        0.1958
     36 N          62.4506   83.3515   11.9748 N.ar    1  UNL1       -0.3257
     37 H          62.5313   82.7781   11.1786 H       1  UNL1        0.1682
     38 N          63.1619   80.1097   14.3253 N.1     1  UNL1       -0.1893
     39 C          62.8757   81.5076   13.8628 C.1     1  UNL1        0.1194
@<TRIPOS>BOND
     1    38    39    3
     2    39    32    1
     3    32    33   ar
     4    33    34   ar
     5    34    35   ar
     6    35    28    1
     7    28    29    2
     8    28    30   am
     9    30     1    1
    10     1     2   ar
    11     2     3   ar
    12     3     4   ar
    13     4     7    1
    14     7     8    1
    15     8     9    1
    16     9    10    1
    17    10    11   am
    18    11    12    2
    19    11    15    1
    20    15    16    1
    21    16    17    1
    22    17    18    1
    23    18    19    1
    24    19    20    1
    25    20    21    1
    26    10    13    1
    27    13    14    1
    28     4     5   ar
    29     5     6   ar
    30     6    22    1
    31    22    23    2
    32    23    24    1
    33    24    25    1
    34    25    26    1
    35    26    27    1
    36    35    36   ar
    37    36    32   ar
    38     6     1   ar
    39    27    22    1
    40    14     7    1
    41    21    16    1
    42    30    31    1
    43    36    37    1
