@<TRIPOS>MOLECULE
*****
 33 38 0 0 0
SMALL
GASTEIGER

@<TRIPOS>ATOM
      1 N          63.9652   90.6992   14.7472 N.ar    1  UNL1       -0.2103
      2 N          63.5882   91.4885   15.9658 N.ar    1  UNL1       -0.0595
      3 N          63.1763   90.5212   17.0356 N.ar    1  UNL1       -0.1269
      4 C          63.2988   89.1339   16.4782 C.ar    1  UNL1        0.1412
      5 C          63.0293   87.7847   17.0758 C.ar    1  UNL1        0.1213
      6 N          63.2474   86.5457   16.2591 N.ar    1  UNL1       -0.2406
      7 C          63.7350   86.6557   14.8448 C.ar    1  UNL1        0.1002
      8 C          64.0044   88.0049   14.2472 C.ar    1  UNL1        0.0415
      9 C          63.7863   89.2440   15.0640 C.ar    1  UNL1        0.1068
     10 O          68.3285   94.5246    9.4604 O.2     1  UNL1       -0.2484
     11 C          67.3247   93.7338   10.2460 C.2     1  UNL1        0.3478
     12 N          66.0934   93.0775    9.6956 N.am    1  UNL1       -0.1594
     13 C          65.3838   92.3986   10.8294 C.ar    1  UNL1        0.0904
     14 C          64.1181   91.5954   10.8841 C.ar    1  UNL1        0.0195
     15 C          63.6453   91.0289   12.1901 C.ar    1  UNL1        0.0206
     16 C          64.4381   91.2657   13.4413 C.ar    1  UNL1        0.0858
     17 C          65.7037   92.0689   13.3865 C.ar    1  UNL1        0.0372
     18 C          66.1765   92.6353   12.0806 C.ar    1  UNL1        0.0918
     19 N          67.3761   93.4605   11.7200 N.am    1  UNL1       -0.1593
     20 C          63.9530   85.4165   14.0282 C.ar    1  UNL1        0.0974
     21 C          64.7346   84.2080   14.4510 C.ar    1  UNL1        0.0427
     22 C          64.6924   83.2129   13.3294 C.ar    1  UNL1        0.1217
     23 N          63.8847   83.8064   12.2134 N.ar    1  UNL1       -0.1673
     24 N          63.4277   85.1682   12.6452 N.ar    1  UNL1       -0.2449
     25 C          62.5922   86.1155   11.8362 C.3     1  UNL1        0.1547
     26 C          62.3069   85.8195   10.3937 C.ar    1  UNL1        0.0127
     27 C          63.2208   84.9176    9.6181 C.ar    1  UNL1       -0.0006
     28 C          62.9355   84.6216    8.1756 C.ar    1  UNL1        0.0112
     29 C          61.7363   85.2275    7.5085 C.ar    1  UNL1        0.0585
     30 CL         61.4510   84.9315    6.0660 Cl      1  UNL1       -0.0822
     31 C          60.8224   86.1294    8.2841 C.ar    1  UNL1        0.0225
     32 C          61.1078   86.4254    9.7267 C.ar    1  UNL1        0.0564
     33 CL         60.1939   87.3273   10.5022 Cl      1  UNL1       -0.0825
@<TRIPOS>BOND
     1    10    11    2
     2    11    12    1
     3    12    13    2
     4    13    14   ar
     5    14    15   ar
     6    15    16   ar
     7    16     1    1
     8     1     2   ar
     9     2     3   ar
    10     3     4   ar
    11     4     5   ar
    12     5     6   ar
    13     6     7   ar
    14     7    20    1
    15    20    21   ar
    16    21    22   ar
    17    22    23   ar
    18    23    24   ar
    19    24    25    1
    20    25    26    1
    21    26    27   ar
    22    27    28   ar
    23    28    29   ar
    24    29    30    1
    25    29    31   ar
    26    31    32   ar
    27    32    33    1
    28     7     8   ar
    29     8     9   ar
    30    16    17   ar
    31    17    18   ar
    32    18    19    2
    33    19    11    1
    34    18    13   ar
    35     9     1   ar
    36     9     4   ar
    37    24    20   ar
    38    32    26   ar
@<TRIPOS>MOLECULE
*****
 33 38 0 0 0
SMALL
GASTEIGER

@<TRIPOS>ATOM
      1 N          63.4276   86.6006   16.1878 N.ar    1  UNL1       -0.2103
      2 N          63.2169   86.6223   17.6728 N.ar    1  UNL1       -0.0595
      3 N          63.0987   88.0543   18.1033 N.ar    1  UNL1       -0.1269
      4 C          63.2364   88.9176   16.8843 C.ar    1  UNL1        0.1412
      5 C          63.2029   90.4058   16.6994 C.ar    1  UNL1        0.1213
      6 N          63.3727   90.9954   15.3307 N.ar    1  UNL1       -0.2406
      7 C          63.5761   90.0970   14.1468 C.ar    1  UNL1        0.1002
      8 C          63.6095   88.6088   14.3318 C.ar    1  UNL1        0.0415
      9 C          63.4397   88.0191   15.7005 C.ar    1  UNL1        0.1068
     10 O          62.2074   79.4939   13.0846 O.2     1  UNL1       -0.2484
     11 C          62.6651   80.8614   13.4975 C.2     1  UNL1        0.3478
     12 N          63.8489   81.5990   12.9457 N.am    1  UNL1       -0.1594
     13 C          63.9348   82.9249   13.6418 C.ar    1  UNL1        0.0904
     14 C          64.8965   84.0682   13.5083 C.ar    1  UNL1        0.0195
     15 C          64.7274   85.2934   14.3570 C.ar    1  UNL1        0.0206
     16 C          63.5966   85.3753   15.3391 C.ar    1  UNL1        0.0858
     17 C          62.6349   84.2319   15.4727 C.ar    1  UNL1        0.0372
     18 C          62.8040   83.0067   14.6240 C.ar    1  UNL1        0.0918
     19 N          62.0193   81.7315   14.5348 N.am    1  UNL1       -0.1593
     20 C          63.7459   90.6867   12.7782 C.ar    1  UNL1        0.0974
     21 C          64.9056   91.5168   12.3134 C.ar    1  UNL1        0.0427
     22 C          64.6622   91.8930   10.8819 C.ar    1  UNL1        0.1217
     23 N          63.3520   91.2955   10.4619 N.ar    1  UNL1       -0.1673
     24 N          62.7857   90.5499   11.6339 N.ar    1  UNL1       -0.2449
     25 C          61.4871   89.7994   11.6574 C.3     1  UNL1        0.1547
     26 C          61.1758   88.8052   10.5783 C.ar    1  UNL1        0.0127
     27 C          60.2607   89.1833    9.4515 C.ar    1  UNL1       -0.0006
     28 C          59.9494   88.1891    8.3723 C.ar    1  UNL1        0.0112
     29 C          60.5532   86.8168    8.4199 C.ar    1  UNL1        0.0585
     30 CL         60.2418   85.8226    7.3408 Cl      1  UNL1       -0.0822
     31 C          61.4683   86.4387    9.5467 C.ar    1  UNL1        0.0225
     32 C          61.7796   87.4330   10.6259 C.ar    1  UNL1        0.0564
     33 CL         62.6947   87.0549   11.7527 Cl      1  UNL1       -0.0825
@<TRIPOS>BOND
     1    10    11    2
     2    11    12    1
     3    12    13    2
     4    13    14   ar
     5    14    15   ar
     6    15    16   ar
     7    16     1    1
     8     1     2   ar
     9     2     3   ar
    10     3     4   ar
    11     4     5   ar
    12     5     6   ar
    13     6     7   ar
    14     7    20    1
    15    20    21   ar
    16    21    22   ar
    17    22    23   ar
    18    23    24   ar
    19    24    25    1
    20    25    26    1
    21    26    27   ar
    22    27    28   ar
    23    28    29   ar
    24    29    30    1
    25    29    31   ar
    26    31    32   ar
    27    32    33    1
    28     7     8   ar
    29     8     9   ar
    30    16    17   ar
    31    17    18   ar
    32    18    19    2
    33    19    11    1
    34    18    13   ar
    35     9     1   ar
    36     9     4   ar
    37    24    20   ar
    38    32    26   ar
@<TRIPOS>MOLECULE
*****
 33 38 0 0 0
SMALL
GASTEIGER

@<TRIPOS>ATOM
      1 N          65.8548   92.4212   13.4609 N.ar    1  UNL1       -0.2103
      2 N          66.1714   92.9778   14.8173 N.ar    1  UNL1       -0.0595
      3 N          65.3717   92.2134   15.8303 N.ar    1  UNL1       -0.1269
      4 C          64.5607   91.1843   15.0998 C.ar    1  UNL1        0.1412
      5 C          63.5890   90.1470   15.5788 C.ar    1  UNL1        0.1213
      6 N          62.9159   89.2381   14.5936 N.ar    1  UNL1       -0.2406
      7 C          63.2145   89.3665   13.1292 C.ar    1  UNL1        0.1002
      8 C          64.1863   90.4039   12.6502 C.ar    1  UNL1        0.0415
      9 C          64.8594   91.3128   13.6354 C.ar    1  UNL1        0.1068
     10 O          67.2653   96.8448    7.1311 O.2     1  UNL1       -0.2484
     11 C          67.1903   95.8213    8.2251 C.2     1  UNL1        0.3478
     12 N          67.9755   94.5451    8.2939 N.am    1  UNL1       -0.1594
     13 C          67.5873   93.8294    9.5538 C.ar    1  UNL1        0.0904
     14 C          68.0349   92.5261   10.1463 C.ar    1  UNL1        0.0195
     15 C          67.4574   92.0567   11.4486 C.ar    1  UNL1        0.0206
     16 C          66.4323   92.8906   12.1584 C.ar    1  UNL1        0.0858
     17 C          65.9848   94.1939   11.5659 C.ar    1  UNL1        0.0372
     18 C          66.5623   94.6633   10.2636 C.ar    1  UNL1        0.0918
     19 N          66.3169   95.8944    9.4425 N.am    1  UNL1       -0.1593
     20 C          62.5414   88.4575   12.1441 C.ar    1  UNL1        0.0974
     21 C          61.6155   88.8817   11.0428 C.ar    1  UNL1        0.0427
     22 C          61.1778   87.6510   10.3053 C.ar    1  UNL1        0.1217
     23 N          61.8332   86.4662   10.9508 N.ar    1  UNL1       -0.1673
     24 N          62.6760   86.9646   12.0872 N.ar    1  UNL1       -0.2449
     25 C          63.5073   86.1187   13.0056 C.3     1  UNL1        0.1547
     26 C          63.2345   84.6484   13.1232 C.ar    1  UNL1        0.0127
     27 C          63.4410   83.7502   11.9397 C.ar    1  UNL1       -0.0006
     28 C          63.1682   82.2800   12.0574 C.ar    1  UNL1        0.0112
     29 C          62.6890   81.7078   13.3586 C.ar    1  UNL1        0.0585
     30 CL         62.4162   80.2376   13.4763 Cl      1  UNL1       -0.0822
     31 C          62.4826   82.6060   14.5421 C.ar    1  UNL1        0.0225
     32 C          62.7553   84.0763   14.4244 C.ar    1  UNL1        0.0564
     33 CL         62.5489   84.9745   15.6079 Cl      1  UNL1       -0.0825
@<TRIPOS>BOND
     1    10    11    2
     2    11    12    1
     3    12    13    2
     4    13    14   ar
     5    14    15   ar
     6    15    16   ar
     7    16     1    1
     8     1     2   ar
     9     2     3   ar
    10     3     4   ar
    11     4     5   ar
    12     5     6   ar
    13     6     7   ar
    14     7    20    1
    15    20    21   ar
    16    21    22   ar
    17    22    23   ar
    18    23    24   ar
    19    24    25    1
    20    25    26    1
    21    26    27   ar
    22    27    28   ar
    23    28    29   ar
    24    29    30    1
    25    29    31   ar
    26    31    32   ar
    27    32    33    1
    28     7     8   ar
    29     8     9   ar
    30    16    17   ar
    31    17    18   ar
    32    18    19    2
    33    19    11    1
    34    18    13   ar
    35     9     1   ar
    36     9     4   ar
    37    24    20   ar
    38    32    26   ar
@<TRIPOS>MOLECULE
*****
 33 38 0 0 0
SMALL
GASTEIGER

@<TRIPOS>ATOM
      1 N          63.9228   84.5614   14.0512 N.ar    1  UNL1       -0.2103
      2 N          64.2802   84.2762   15.4798 N.ar    1  UNL1       -0.0595
      3 N          64.3268   85.5824   16.2157 N.ar    1  UNL1       -0.1269
      4 C          63.9982   86.6750   15.2418 C.ar    1  UNL1        0.1412
      5 C          63.8941   88.1629   15.4003 C.ar    1  UNL1        0.1213
      6 N          63.5403   89.0198   14.2212 N.ar    1  UNL1       -0.2406
      7 C          63.2906   88.3889   12.8834 C.ar    1  UNL1        0.1002
      8 C          63.3947   86.9009   12.7249 C.ar    1  UNL1        0.0415
      9 C          63.7485   86.0440   13.9041 C.ar    1  UNL1        0.1068
     10 O          62.3646   77.8033   10.3739 O.2     1  UNL1       -0.2484
     11 C          62.7307   79.1899   10.8135 C.2     1  UNL1        0.3478
     12 N          63.2069   80.2999    9.9242 N.am    1  UNL1       -0.1594
     13 C          63.4554   81.5060   10.7807 C.ar    1  UNL1        0.0904
     14 C          63.9338   82.8891   10.4521 C.ar    1  UNL1        0.0195
     15 C          64.0896   83.9076   11.5422 C.ar    1  UNL1        0.0206
     16 C          63.7670   83.5429   12.9610 C.ar    1  UNL1        0.0858
     17 C          63.2886   82.1597   13.2896 C.ar    1  UNL1        0.0372
     18 C          63.1328   81.1413   12.1995 C.ar    1  UNL1        0.0918
     19 N          62.6849   79.7099   12.2198 N.am    1  UNL1       -0.1593
     20 C          62.9368   89.2459   11.7044 C.ar    1  UNL1        0.0974
     21 C          63.4777   90.6148   11.4152 C.ar    1  UNL1        0.0427
     22 C          62.8550   91.0993   10.1395 C.ar    1  UNL1        0.1217
     23 N          61.9293   90.0299    9.6401 N.ar    1  UNL1       -0.1673
     24 N          61.9798   88.8844   10.6072 N.ar    1  UNL1       -0.2449
     25 C          61.2088   87.6025   10.4966 C.3     1  UNL1        0.1547
     26 C          61.3775   86.7275    9.2900 C.ar    1  UNL1        0.0127
     27 C          62.6867   86.0394    9.0397 C.ar    1  UNL1       -0.0006
     28 C          62.8554   85.1644    7.8331 C.ar    1  UNL1        0.0112
     29 C          61.7150   84.9774    6.8768 C.ar    1  UNL1        0.0585
     30 CL         61.8837   84.1024    5.6702 Cl      1  UNL1       -0.0822
     31 C          60.4058   85.6655    7.1271 C.ar    1  UNL1        0.0225
     32 C          60.2371   86.5406    8.3338 C.ar    1  UNL1        0.0564
     33 CL         58.9279   87.2286    8.5841 Cl      1  UNL1       -0.0825
@<TRIPOS>BOND
     1    10    11    2
     2    11    12    1
     3    12    13    2
     4    13    14   ar
     5    14    15   ar
     6    15    16   ar
     7    16     1    1
     8     1     2   ar
     9     2     3   ar
    10     3     4   ar
    11     4     5   ar
    12     5     6   ar
    13     6     7   ar
    14     7    20    1
    15    20    21   ar
    16    21    22   ar
    17    22    23   ar
    18    23    24   ar
    19    24    25    1
    20    25    26    1
    21    26    27   ar
    22    27    28   ar
    23    28    29   ar
    24    29    30    1
    25    29    31   ar
    26    31    32   ar
    27    32    33    1
    28     7     8   ar
    29     8     9   ar
    30    16    17   ar
    31    17    18   ar
    32    18    19    2
    33    19    11    1
    34    18    13   ar
    35     9     1   ar
    36     9     4   ar
    37    24    20   ar
    38    32    26   ar
@<TRIPOS>MOLECULE
*****
 33 38 0 0 0
SMALL
GASTEIGER

@<TRIPOS>ATOM
      1 N          63.2265   86.4755   16.0882 N.ar    1  UNL1       -0.2103
      2 N          63.0672   86.4544   17.5795 N.ar    1  UNL1       -0.0595
      3 N          63.0851   87.8726   18.0678 N.ar    1  UNL1       -0.1269
      4 C          63.2556   88.7702   16.8781 C.ar    1  UNL1        0.1412
      5 C          63.3425   90.2622   16.7507 C.ar    1  UNL1        0.1213
      6 N          63.5168   90.8908   15.4001 N.ar    1  UNL1       -0.2406
      7 C          63.6041   90.0273   14.1765 C.ar    1  UNL1        0.1002
      8 C          63.5172   88.5353   14.3039 C.ar    1  UNL1        0.0415
      9 C          63.3429   87.9067   15.6546 C.ar    1  UNL1        0.1068
     10 O          64.5609   81.9284    9.8299 O.2     1  UNL1       -0.2484
     11 C          64.1905   82.5592   11.1394 C.2     1  UNL1        0.3478
     12 N          63.5125   81.8730   12.2881 N.am    1  UNL1       -0.1594
     13 C          63.3359   82.8767   13.3887 C.ar    1  UNL1        0.0904
     14 C          62.7307   82.7698   14.7570 C.ar    1  UNL1        0.0195
     15 C          62.6942   83.9693   15.6568 C.ar    1  UNL1        0.0206
     16 C          63.2630   85.2759   15.1883 C.ar    1  UNL1        0.0858
     17 C          63.8682   85.3828   13.8200 C.ar    1  UNL1        0.0372
     18 C          63.9047   84.1832   12.9203 C.ar    1  UNL1        0.0918
     19 N          64.4328   83.9870   11.5301 N.am    1  UNL1       -0.1593
     20 C          63.7784   90.6560   12.8259 C.ar    1  UNL1        0.0974
     21 C          64.8837   91.5863   12.4222 C.ar    1  UNL1        0.0427
     22 C          64.6663   91.9700   10.9885 C.ar    1  UNL1        0.1217
     23 N          63.4267   91.2767   10.5060 N.ar    1  UNL1       -0.1673
     24 N          62.8780   90.4647   11.6415 N.ar    1  UNL1       -0.2449
     25 C          61.6452   89.6111   11.6000 C.3     1  UNL1        0.1547
     26 C          61.5096   88.5395   10.5593 C.ar    1  UNL1        0.0127
     27 C          62.2774   87.2583   10.6975 C.ar    1  UNL1       -0.0006
     28 C          62.1419   86.1866    9.6568 C.ar    1  UNL1        0.0112
     29 C          61.2385   86.3961    8.4778 C.ar    1  UNL1        0.0585
     30 CL         61.1029   85.3245    7.4370 Cl      1  UNL1       -0.0822
     31 C          60.4707   87.6773    8.3395 C.ar    1  UNL1        0.0225
     32 C          60.6063   88.7490    9.3803 C.ar    1  UNL1        0.0564
     33 CL         59.8385   90.0302    9.2421 Cl      1  UNL1       -0.0825
@<TRIPOS>BOND
     1    10    11    2
     2    11    12    1
     3    12    13    2
     4    13    14   ar
     5    14    15   ar
     6    15    16   ar
     7    16     1    1
     8     1     2   ar
     9     2     3   ar
    10     3     4   ar
    11     4     5   ar
    12     5     6   ar
    13     6     7   ar
    14     7    20    1
    15    20    21   ar
    16    21    22   ar
    17    22    23   ar
    18    23    24   ar
    19    24    25    1
    20    25    26    1
    21    26    27   ar
    22    27    28   ar
    23    28    29   ar
    24    29    30    1
    25    29    31   ar
    26    31    32   ar
    27    32    33    1
    28     7     8   ar
    29     8     9   ar
    30    16    17   ar
    31    17    18   ar
    32    18    19    2
    33    19    11    1
    34    18    13   ar
    35     9     1   ar
    36     9     4   ar
    37    24    20   ar
    38    32    26   ar
@<TRIPOS>MOLECULE
*****
 33 38 0 0 0
SMALL
GASTEIGER

@<TRIPOS>ATOM
      1 N          63.6267   89.0544   15.3593 N.ar    1  UNL1       -0.2103
      2 N          63.4220   89.5060   16.7750 N.ar    1  UNL1       -0.0595
      3 N          63.1190   88.2961   17.6083 N.ar    1  UNL1       -0.1269
      4 C          63.1364   87.0967   16.7075 C.ar    1  UNL1        0.1412
      5 C          62.9071   85.6384   16.9734 C.ar    1  UNL1        0.1213
      6 N          62.9916   84.6488   15.8494 N.ar    1  UNL1       -0.2406
      7 C          63.3054   85.1174   14.4594 C.ar    1  UNL1        0.1002
      8 C          63.5347   86.5758   14.1936 C.ar    1  UNL1        0.0415
      9 C          63.4502   87.5654   15.3176 C.ar    1  UNL1        0.1068
     10 O          67.1300   94.4891   10.9080 O.2     1  UNL1       -0.2484
     11 C          66.2915   93.4113   11.5287 C.2     1  UNL1        0.3478
     12 N          65.1484   92.6954   10.8724 N.am    1  UNL1       -0.1594
     13 C          64.5993   91.7018   11.8529 C.ar    1  UNL1        0.0904
     14 C          63.4713   90.7176   11.7593 C.ar    1  UNL1        0.0195
     15 C          63.1471   89.8351   12.9281 C.ar    1  UNL1        0.0206
     16 C          63.9509   89.9369   14.1905 C.ar    1  UNL1        0.0858
     17 C          65.0789   90.9212   14.2840 C.ar    1  UNL1        0.0372
     18 C          65.4031   91.8036   13.1152 C.ar    1  UNL1        0.0918
     19 N          66.4489   92.8601   12.9149 N.am    1  UNL1       -0.1593
     20 C          63.3898   84.1277   13.3355 C.ar    1  UNL1        0.0974
     21 C          63.5023   82.6388   13.4783 C.ar    1  UNL1        0.0427
     22 C          63.5586   82.0441   12.1023 C.ar    1  UNL1        0.1217
     23 N          63.4810   83.1655   11.1092 N.ar    1  UNL1       -0.1673
     24 N          63.3766   84.4533   11.8712 N.ar    1  UNL1       -0.2449
     25 C          63.2766   85.8256   11.2740 C.3     1  UNL1        0.1547
     26 C          62.1420   86.1615   10.3522 C.ar    1  UNL1        0.0127
     27 C          60.9520   86.9134   10.8705 C.ar    1  UNL1       -0.0006
     28 C          59.8174   87.2493    9.9487 C.ar    1  UNL1        0.0112
     29 C          59.8728   86.8334    8.5085 C.ar    1  UNL1        0.0585
     30 CL         58.7382   87.1694    7.5868 Cl      1  UNL1       -0.0822
     31 C          61.0628   86.0816    7.9902 C.ar    1  UNL1        0.0225
     32 C          62.1974   85.7456    8.9121 C.ar    1  UNL1        0.0564
     33 CL         63.3874   84.9938    8.3938 Cl      1  UNL1       -0.0825
@<TRIPOS>BOND
     1    10    11    2
     2    11    12    1
     3    12    13    2
     4    13    14   ar
     5    14    15   ar
     6    15    16   ar
     7    16     1    1
     8     1     2   ar
     9     2     3   ar
    10     3     4   ar
    11     4     5   ar
    12     5     6   ar
    13     6     7   ar
    14     7    20    1
    15    20    21   ar
    16    21    22   ar
    17    22    23   ar
    18    23    24   ar
    19    24    25    1
    20    25    26    1
    21    26    27   ar
    22    27    28   ar
    23    28    29   ar
    24    29    30    1
    25    29    31   ar
    26    31    32   ar
    27    32    33    1
    28     7     8   ar
    29     8     9   ar
    30    16    17   ar
    31    17    18   ar
    32    18    19    2
    33    19    11    1
    34    18    13   ar
    35     9     1   ar
    36     9     4   ar
    37    24    20   ar
    38    32    26   ar
@<TRIPOS>MOLECULE
*****
 33 38 0 0 0
SMALL
GASTEIGER

@<TRIPOS>ATOM
      1 N          62.9168   90.2210   11.1224 N.ar    1  UNL1       -0.2103
      2 N          61.9011   90.5234   10.0608 N.ar    1  UNL1       -0.0595
      3 N          61.0758   89.2898    9.8441 N.ar    1  UNL1       -0.1269
      4 C          61.5814   88.2249   10.7717 C.ar    1  UNL1        0.1412
      5 C          61.1528   86.8056   10.9991 C.ar    1  UNL1        0.1213
      6 N          61.8619   85.9619   12.0165 N.ar    1  UNL1       -0.2406
      7 C          62.9998   86.5374   12.8066 C.ar    1  UNL1        0.1002
      8 C          63.4284   87.9567   12.5792 C.ar    1  UNL1        0.0415
      9 C          62.7192   88.8005   11.5617 C.ar    1  UNL1        0.1068
     10 O          67.8411   93.8444   16.0464 O.2     1  UNL1       -0.2484
     11 C          67.0011   93.3389   14.9111 C.2     1  UNL1        0.3478
     12 N          67.0002   93.8726   13.5093 N.am    1  UNL1       -0.1594
     13 C          66.0130   93.0746   12.7101 C.ar    1  UNL1        0.0904
     14 C          65.5902   93.1503   11.2729 C.ar    1  UNL1        0.0195
     15 C          64.5581   92.1991   10.7437 C.ar    1  UNL1        0.0206
     16 C          63.9489   91.1722   11.6517 C.ar    1  UNL1        0.0858
     17 C          64.3718   91.0965   13.0888 C.ar    1  UNL1        0.0372
     18 C          65.4038   92.0477   13.6180 C.ar    1  UNL1        0.0918
     19 N          66.0145   92.2111   14.9783 N.am    1  UNL1       -0.1593
     20 C          63.7088   85.6935   13.8239 C.ar    1  UNL1        0.0974
     21 C          64.9067   86.1029   14.6287 C.ar    1  UNL1        0.0427
     22 C          65.2827   84.9544   15.5173 C.ar    1  UNL1        0.1217
     23 N          64.3172   83.8352   15.2617 N.ar    1  UNL1       -0.1673
     24 N          63.3446   84.2919   14.2151 N.ar    1  UNL1       -0.2449
     25 C          62.2073   83.4883   13.6576 C.3     1  UNL1        0.1547
     26 C          62.4747   82.4068   12.6532 C.ar    1  UNL1        0.0127
     27 C          63.0949   82.7482   11.3307 C.ar    1  UNL1       -0.0006
     28 C          63.3622   81.6667   10.3263 C.ar    1  UNL1        0.0112
     29 C          63.0094   80.2439   10.6443 C.ar    1  UNL1        0.0585
     30 CL         63.2768   79.1624    9.6398 Cl      1  UNL1       -0.0822
     31 C          62.3893   79.9025   11.9667 C.ar    1  UNL1        0.0225
     32 C          62.1219   80.9841   12.9712 C.ar    1  UNL1        0.0564
     33 CL         61.5017   80.6427   14.2936 Cl      1  UNL1       -0.0825
@<TRIPOS>BOND
     1    10    11    2
     2    11    12    1
     3    12    13    2
     4    13    14   ar
     5    14    15   ar
     6    15    16   ar
     7    16     1    1
     8     1     2   ar
     9     2     3   ar
    10     3     4   ar
    11     4     5   ar
    12     5     6   ar
    13     6     7   ar
    14     7    20    1
    15    20    21   ar
    16    21    22   ar
    17    22    23   ar
    18    23    24   ar
    19    24    25    1
    20    25    26    1
    21    26    27   ar
    22    27    28   ar
    23    28    29   ar
    24    29    30    1
    25    29    31   ar
    26    31    32   ar
    27    32    33    1
    28     7     8   ar
    29     8     9   ar
    30    16    17   ar
    31    17    18   ar
    32    18    19    2
    33    19    11    1
    34    18    13   ar
    35     9     1   ar
    36     9     4   ar
    37    24    20   ar
    38    32    26   ar
@<TRIPOS>MOLECULE
*****
 33 38 0 0 0
SMALL
GASTEIGER

@<TRIPOS>ATOM
      1 N          63.4025   84.1322   11.7233 N.ar    1  UNL1       -0.2103
      2 N          63.8925   82.7159   11.7873 N.ar    1  UNL1       -0.0595
      3 N          64.4810   82.4901   13.1484 N.ar    1  UNL1       -0.1269
      4 C          64.3547   83.7669   13.9256 C.ar    1  UNL1        0.1412
      5 C          64.7605   84.1365   15.3216 C.ar    1  UNL1        0.1213
      6 N          64.4999   85.5209   15.8367 N.ar    1  UNL1       -0.2406
      7 C          63.8333   86.5358   14.9559 C.ar    1  UNL1        0.1002
      8 C          63.4275   86.1662   13.5599 C.ar    1  UNL1        0.0415
      9 C          63.6882   84.7817   13.0448 C.ar    1  UNL1        0.1068
     10 O          58.4418   88.4621    7.4494 O.2     1  UNL1       -0.2484
     11 C          59.5112   87.5735    8.0122 C.2     1  UNL1        0.3478
     12 N          60.5707   86.8613    7.2247 N.am    1  UNL1       -0.1594
     13 C          61.4231   86.0887    8.1872 C.ar    1  UNL1        0.0904
     14 C          62.6155   85.2019    7.9834 C.ar    1  UNL1        0.0195
     15 C          63.2753   84.5497    9.1621 C.ar    1  UNL1        0.0206
     16 C          62.7427   84.7844   10.5446 C.ar    1  UNL1        0.0858
     17 C          61.5503   85.6713   10.7483 C.ar    1  UNL1        0.0372
     18 C          60.8905   86.3234    9.5697 C.ar    1  UNL1        0.0918
     19 N          59.7088   87.2411    9.4615 N.am    1  UNL1       -0.1593
     20 C          63.5727   87.9202   15.4711 C.ar    1  UNL1        0.0974
     21 C          63.2781   88.2904   16.8945 C.ar    1  UNL1        0.0427
     22 C          63.0842   89.7765   16.9564 C.ar    1  UNL1        0.1217
     23 N          63.2589   90.3248   15.5712 N.ar    1  UNL1       -0.1673
     24 N          63.5608   89.1776   14.6532 N.ar    1  UNL1       -0.2449
     25 C          63.8075   89.2712   13.1766 C.3     1  UNL1        0.1547
     26 C          64.3212   90.5488   12.5815 C.ar    1  UNL1        0.0127
     27 C          65.3284   91.3722   13.3282 C.ar    1  UNL1       -0.0006
     28 C          65.8420   92.6497   12.7331 C.ar    1  UNL1        0.0112
     29 C          65.3484   93.1038   11.3914 C.ar    1  UNL1        0.0585
     30 CL         65.8621   94.3813   10.7964 Cl      1  UNL1       -0.0822
     31 C          64.3412   92.2804   10.6448 C.ar    1  UNL1        0.0225
     32 C          63.8276   91.0028   11.2399 C.ar    1  UNL1        0.0564
     33 CL         62.8203   90.1794   10.4932 Cl      1  UNL1       -0.0825
@<TRIPOS>BOND
     1    10    11    2
     2    11    12    1
     3    12    13    2
     4    13    14   ar
     5    14    15   ar
     6    15    16   ar
     7    16     1    1
     8     1     2   ar
     9     2     3   ar
    10     3     4   ar
    11     4     5   ar
    12     5     6   ar
    13     6     7   ar
    14     7    20    1
    15    20    21   ar
    16    21    22   ar
    17    22    23   ar
    18    23    24   ar
    19    24    25    1
    20    25    26    1
    21    26    27   ar
    22    27    28   ar
    23    28    29   ar
    24    29    30    1
    25    29    31   ar
    26    31    32   ar
    27    32    33    1
    28     7     8   ar
    29     8     9   ar
    30    16    17   ar
    31    17    18   ar
    32    18    19    2
    33    19    11    1
    34    18    13   ar
    35     9     1   ar
    36     9     4   ar
    37    24    20   ar
    38    32    26   ar
@<TRIPOS>MOLECULE
*****
 33 38 0 0 0
SMALL
GASTEIGER

@<TRIPOS>ATOM
      1 N          63.2645   83.3366   11.5067 N.ar    1  UNL1       -0.2103
      2 N          63.6956   81.9248   11.2400 N.ar    1  UNL1       -0.0595
      3 N          64.1348   81.3207   12.5408 N.ar    1  UNL1       -0.1269
      4 C          63.9753   82.3591   13.6115 C.ar    1  UNL1        0.1412
      5 C          64.2503   82.3312   15.0858 C.ar    1  UNL1        0.1213
      6 N          63.9874   83.5490   15.9209 N.ar    1  UNL1       -0.2406
      7 C          63.4495   84.7950   15.2819 C.ar    1  UNL1        0.1002
      8 C          63.1745   84.8229   13.8076 C.ar    1  UNL1        0.0415
      9 C          63.4374   83.6050   12.9724 C.ar    1  UNL1        0.1068
     10 O          59.0654   89.0693    8.1711 O.2     1  UNL1       -0.2484
     11 C          59.9969   87.9569    8.5517 C.2     1  UNL1        0.3478
     12 N          61.0187   87.3180    7.6585 N.am    1  UNL1       -0.1594
     13 C          61.7235   86.2544    8.4470 C.ar    1  UNL1        0.0904
     14 C          62.8233   85.3003    8.0863 C.ar    1  UNL1        0.0195
     15 C          63.3369   84.3277    9.1062 C.ar    1  UNL1        0.0206
     16 C          62.7508   84.3093   10.4868 C.ar    1  UNL1        0.0858
     17 C          61.6510   85.2633   10.8476 C.ar    1  UNL1        0.0372
     18 C          61.1374   86.2359    9.8277 C.ar    1  UNL1        0.0918
     19 N          60.0703   87.2881    9.8923 N.am    1  UNL1       -0.1593
     20 C          63.1867   86.0128   16.1171 C.ar    1  UNL1        0.0974
     21 C          62.3475   86.0658   17.3593 C.ar    1  UNL1        0.0427
     22 C          62.3591   87.4773   17.8667 C.ar    1  UNL1        0.1217
     23 N          63.2055   88.2967   16.9382 N.ar    1  UNL1       -0.1673
     24 N          63.7170   87.3917   15.8569 N.ar    1  UNL1       -0.2449
     25 C          64.6032   87.7946   14.7157 C.3     1  UNL1        0.1547
     26 C          64.0727   88.6870   13.6330 C.ar    1  UNL1        0.0127
     27 C          63.2598   88.1068   12.5139 C.ar    1  UNL1       -0.0006
     28 C          62.7293   88.9992   11.4313 C.ar    1  UNL1        0.0112
     29 C          63.0118   90.4720   11.4678 C.ar    1  UNL1        0.0585
     30 CL         62.4813   91.3644   10.3852 Cl      1  UNL1       -0.0822
     31 C          63.8247   91.0522   12.5869 C.ar    1  UNL1        0.0225
     32 C          64.3552   90.1597   13.6695 C.ar    1  UNL1        0.0564
     33 CL         65.1682   90.7399   14.7887 Cl      1  UNL1       -0.0825
@<TRIPOS>BOND
     1    10    11    2
     2    11    12    1
     3    12    13    2
     4    13    14   ar
     5    14    15   ar
     6    15    16   ar
     7    16     1    1
     8     1     2   ar
     9     2     3   ar
    10     3     4   ar
    11     4     5   ar
    12     5     6   ar
    13     6     7   ar
    14     7    20    1
    15    20    21   ar
    16    21    22   ar
    17    22    23   ar
    18    23    24   ar
    19    24    25    1
    20    25    26    1
    21    26    27   ar
    22    27    28   ar
    23    28    29   ar
    24    29    30    1
    25    29    31   ar
    26    31    32   ar
    27    32    33    1
    28     7     8   ar
    29     8     9   ar
    30    16    17   ar
    31    17    18   ar
    32    18    19    2
    33    19    11    1
    34    18    13   ar
    35     9     1   ar
    36     9     4   ar
    37    24    20   ar
    38    32    26   ar
