@<TRIPOS>MOLECULE
*****
 26 29 0 0 0
SMALL
GASTEIGER

@<TRIPOS>ATOM
      1 C          62.1711   88.9431   11.2931 C.ar    1  UNL1        0.1385
      2 C          62.2580   89.8117   10.0734 C.ar    1  UNL1        0.0384
      3 C          63.1367   91.0274   10.0795 C.ar    1  UNL1        0.0203
      4 C          63.9285   91.3743   11.3053 C.ar    1  UNL1        0.0602
      5 C          63.8415   90.5057   12.5251 C.ar    1  UNL1        0.0204
      6 C          62.9628   89.2901   12.5190 C.ar    1  UNL1        0.0384
      7 C          64.7319   91.0953   13.5784 C.ar    1  UNL1        0.0233
      8 C          65.3692   92.3284   13.0097 C.ar    1  UNL1        0.1140
      9 N          64.8727   92.5008   11.6048 N.ar    1  UNL1       -0.3219
     10 C          65.3444   93.6613   10.7798 C.3     1  UNL1        0.1256
     11 C          66.3126   94.6493   11.3597 C.3     1  UNL1        0.0945
     12 C          66.7844   95.8099   10.5346 C.3     1  UNL1        0.0233
     13 N          66.8092   94.4769   12.7645 N.am    1  UNL1       -0.2994
     14 C          66.3374   93.3163   13.5896 C.2     1  UNL1        0.2618
     15 O          66.8340   93.1439   14.9945 O.2     1  UNL1       -0.2686
     16 H          67.4447   95.1253   13.1451 H       1  UNL1        0.1498
     17 O          61.2923   87.7274   11.2871 O.3     1  UNL1       -0.4791
     18 N          63.1304   83.6218   11.4096 N.3     1  UNL1       -0.2737
     19 C          62.7101   84.2936   12.6831 C.3     1  UNL1        0.0758
     20 C          62.0973   85.6622   12.6423 C.3     1  UNL1        0.0609
     21 C          61.9050   86.3589   11.3279 C.3     1  UNL1        0.1687
     22 C          62.3254   85.6870   10.0543 C.3     1  UNL1        0.0609
     23 C          62.9381   84.3185   10.0952 C.3     1  UNL1        0.0758
     24 C          64.5934   81.8467   12.6174 C.3     1  UNL1        0.0173
     25 C          63.7431   82.2533   11.4504 C.3     1  UNL1        0.0576
     26 C          63.5056   81.2912   10.3243 C.3     1  UNL1        0.0173
@<TRIPOS>BOND
     1    24    25    1
     2    25    26    1
     3    25    18    1
     4    18    19    1
     5    19    20    1
     6    20    21    1
     7    21    17    1
     8    17     1    1
     9     1     2   ar
    10     2     3   ar
    11     3     4   ar
    12     4     5   ar
    13     5     6   ar
    14     5     7   ar
    15     7     8   ar
    16     8     9   ar
    17     9    10    1
    18    10    11    1
    19    11    12    1
    20    11    13    1
    21    13    14   am
    22    14    15    2
    23    21    22    1
    24    22    23    1
    25    23    18    1
    26     6     1   ar
    27    14     8    1
    28     9     4   ar
    29    13    16    1
@<TRIPOS>MOLECULE
*****
 26 29 0 0 0
SMALL
GASTEIGER

@<TRIPOS>ATOM
      1 C          62.2591   88.0247   10.8833 C.ar    1  UNL1        0.1385
      2 C          61.7492   86.9666    9.9504 C.ar    1  UNL1        0.0384
      3 C          61.8855   85.5176   10.3135 C.ar    1  UNL1        0.0203
      4 C          62.5317   85.1268   11.6095 C.ar    1  UNL1        0.0602
      5 C          63.0415   86.1849   12.5425 C.ar    1  UNL1        0.0204
      6 C          62.9052   87.6338   12.1794 C.ar    1  UNL1        0.0384
      7 C          63.6287   85.5016   13.7418 C.ar    1  UNL1        0.0233
      8 C          63.4817   84.0211   13.5500 C.ar    1  UNL1        0.1140
      9 N          62.8037   83.7894   12.2322 N.ar    1  UNL1       -0.3219
     10 C          62.5217   82.3908   11.7696 C.3     1  UNL1        0.1256
     11 C          62.9176   81.2238   12.6247 C.3     1  UNL1        0.0945
     12 C          62.6356   79.8251   12.1620 C.3     1  UNL1        0.0233
     13 N          63.5956   81.4555   13.9425 N.am    1  UNL1       -0.2994
     14 C          63.8777   82.8542   14.4052 C.2     1  UNL1        0.2618
     15 O          64.5557   83.0858   15.7231 O.2     1  UNL1       -0.2686
     16 H          63.8555   80.6895   14.5037 H       1  UNL1        0.1498
     17 O          62.1228   89.4737   10.5203 O.3     1  UNL1       -0.4791
     18 N          65.0781   92.4769   12.1006 N.3     1  UNL1       -0.2737
     19 C          64.4536   91.4787   13.0298 C.3     1  UNL1        0.0758
     20 C          63.4684   90.4776   12.5031 C.3     1  UNL1        0.0609
     21 C          63.1079   90.4748   11.0470 C.3     1  UNL1        0.1687
     22 C          63.7325   91.4730   10.1178 C.3     1  UNL1        0.0609
     23 C          64.7175   92.4741   10.6446 C.3     1  UNL1        0.0758
     24 C          66.3274   94.7427   11.8655 C.3     1  UNL1        0.0173
     25 C          66.0632   93.4779   12.6274 C.3     1  UNL1        0.0576
     26 C          66.7840   93.2142   13.9162 C.3     1  UNL1        0.0173
@<TRIPOS>BOND
     1    24    25    1
     2    25    26    1
     3    25    18    1
     4    18    19    1
     5    19    20    1
     6    20    21    1
     7    21    17    1
     8    17     1    1
     9     1     2   ar
    10     2     3   ar
    11     3     4   ar
    12     4     5   ar
    13     5     6   ar
    14     5     7   ar
    15     7     8   ar
    16     8     9   ar
    17     9    10    1
    18    10    11    1
    19    11    12    1
    20    11    13    1
    21    13    14   am
    22    14    15    2
    23    21    22    1
    24    22    23    1
    25    23    18    1
    26     6     1   ar
    27    14     8    1
    28     9     4   ar
    29    13    16    1
@<TRIPOS>MOLECULE
*****
 26 29 0 0 0
SMALL
GASTEIGER

@<TRIPOS>ATOM
      1 C          63.7784   89.6416   13.5417 C.ar    1  UNL1        0.1385
      2 C          63.1686   89.1676   12.2558 C.ar    1  UNL1        0.0384
      3 C          63.0106   87.6985   11.9975 C.ar    1  UNL1        0.0203
      4 C          63.4622   86.7034   13.0250 C.ar    1  UNL1        0.0602
      5 C          64.0719   87.1774   14.3109 C.ar    1  UNL1        0.0204
      6 C          64.2300   88.6465   14.5692 C.ar    1  UNL1        0.0384
      7 C          64.4215   85.9709   15.1306 C.ar    1  UNL1        0.0233
      8 C          64.0278   84.7511   14.3513 C.ar    1  UNL1        0.1140
      9 N          63.4349   85.2038   13.0500 N.ar    1  UNL1       -0.3219
     10 C          62.9469   84.1922   12.0559 C.3     1  UNL1        0.1256
     11 C          63.0517   82.7278   12.3631 C.3     1  UNL1        0.0945
     12 C          62.5635   81.7160   11.3690 C.3     1  UNL1        0.0233
     13 N          63.6446   82.2750   13.6644 N.am    1  UNL1       -0.2994
     14 C          64.1327   83.2867   14.6586 C.2     1  UNL1        0.2618
     15 O          64.7256   82.8339   15.9599 O.2     1  UNL1       -0.2686
     16 H          63.7133   81.3138   13.8661 H       1  UNL1        0.1498
     17 O          63.9365   91.1107   13.8000 O.3     1  UNL1       -0.4791
     18 N          66.3428   93.6473   10.9671 N.3     1  UNL1       -0.2737
     19 C          66.6354   93.6819   12.4379 C.3     1  UNL1        0.0758
     20 C          65.8333   92.8363   13.3823 C.3     1  UNL1        0.0609
     21 C          64.7386   91.9563   12.8558 C.3     1  UNL1        0.1687
     22 C          64.4460   91.9217   11.3849 C.3     1  UNL1        0.0609
     23 C          65.2481   92.7673   10.4407 C.3     1  UNL1        0.0758
     24 C          66.9748   95.9832   10.0214 C.3     1  UNL1        0.0173
     25 C          67.1449   94.4928   10.0229 C.3     1  UNL1        0.0576
     26 C          68.1172   93.8480    9.0800 C.3     1  UNL1        0.0173
@<TRIPOS>BOND
     1    24    25    1
     2    25    26    1
     3    25    18    1
     4    18    19    1
     5    19    20    1
     6    20    21    1
     7    21    17    1
     8    17     1    1
     9     1     2   ar
    10     2     3   ar
    11     3     4   ar
    12     4     5   ar
    13     5     6   ar
    14     5     7   ar
    15     7     8   ar
    16     8     9   ar
    17     9    10    1
    18    10    11    1
    19    11    12    1
    20    11    13    1
    21    13    14   am
    22    14    15    2
    23    21    22    1
    24    22    23    1
    25    23    18    1
    26     6     1   ar
    27    14     8    1
    28     9     4   ar
    29    13    16    1
@<TRIPOS>MOLECULE
*****
 26 29 0 0 0
SMALL
GASTEIGER

@<TRIPOS>ATOM
      1 C          62.8628   88.5473   12.0774 C.ar    1  UNL1        0.1385
      2 C          63.5064   88.2713   13.4039 C.ar    1  UNL1        0.0384
      3 C          64.4356   89.2803   14.0109 C.ar    1  UNL1        0.0203
      4 C          64.7211   90.5652   13.2915 C.ar    1  UNL1        0.0602
      5 C          64.0774   90.8412   11.9651 C.ar    1  UNL1        0.0204
      6 C          63.1482   89.8322   11.3580 C.ar    1  UNL1        0.0384
      7 C          64.5455   92.1860   11.4936 C.ar    1  UNL1        0.0233
      8 C          65.4784   92.7412   12.5286 C.ar    1  UNL1        0.1140
      9 N          65.5870   91.7396   13.6398 N.ar    1  UNL1       -0.3219
     10 C          66.4602   92.0261   14.8252 C.3     1  UNL1        0.1256
     11 C          67.2250   93.3144   14.8994 C.3     1  UNL1        0.0945
     12 C          68.0983   93.6010   16.0848 C.3     1  UNL1        0.0233
     13 N          67.1164   94.3161   13.7882 N.am    1  UNL1       -0.2994
     14 C          66.2431   94.0295   12.6027 C.2     1  UNL1        0.2618
     15 O          66.1346   95.0312   11.4915 O.2     1  UNL1       -0.2686
     16 H          67.6183   95.1616   13.8369 H       1  UNL1        0.1498
     17 O          61.9335   87.5383   11.4703 O.3     1  UNL1       -0.4791
     18 N          62.9451   83.1569   11.6444 N.3     1  UNL1       -0.2737
     19 C          62.8776   83.8590   10.3206 C.3     1  UNL1        0.0758
     20 C          62.5404   85.3195   10.2625 C.3     1  UNL1        0.0609
     21 C          62.2707   86.0778   11.5283 C.3     1  UNL1        0.1687
     22 C          62.3383   85.3757   12.8521 C.3     1  UNL1        0.0609
     23 C          62.6755   83.9153   12.9101 C.3     1  UNL1        0.0758
     24 C          63.3471   80.8909   10.4387 C.3     1  UNL1        0.0173
     25 C          63.2823   81.6965   11.7024 C.3     1  UNL1        0.0576
     26 C          63.5547   81.0415   13.0241 C.3     1  UNL1        0.0173
@<TRIPOS>BOND
     1    24    25    1
     2    25    26    1
     3    25    18    1
     4    18    19    1
     5    19    20    1
     6    20    21    1
     7    21    17    1
     8    17     1    1
     9     1     2   ar
    10     2     3   ar
    11     3     4   ar
    12     4     5   ar
    13     5     6   ar
    14     5     7   ar
    15     7     8   ar
    16     8     9   ar
    17     9    10    1
    18    10    11    1
    19    11    12    1
    20    11    13    1
    21    13    14   am
    22    14    15    2
    23    21    22    1
    24    22    23    1
    25    23    18    1
    26     6     1   ar
    27    14     8    1
    28     9     4   ar
    29    13    16    1
@<TRIPOS>MOLECULE
*****
 26 29 0 0 0
SMALL
GASTEIGER

@<TRIPOS>ATOM
      1 C          61.5708   89.5475   11.2834 C.ar    1  UNL1        0.1385
      2 C          61.7915   89.2925   12.7450 C.ar    1  UNL1        0.0384
      3 C          62.9038   89.9919   13.4687 C.ar    1  UNL1        0.0203
      4 C          63.7952   90.9462   12.7309 C.ar    1  UNL1        0.0602
      5 C          63.5745   91.2013   11.2693 C.ar    1  UNL1        0.0204
      6 C          62.4623   90.5019   10.5456 C.ar    1  UNL1        0.0384
      7 C          64.6065   92.1881   10.8100 C.ar    1  UNL1        0.0233
      8 C          65.4651   92.5430   11.9877 C.ar    1  UNL1        0.1140
      9 N          64.9637   91.7755   13.1749 N.ar    1  UNL1       -0.3219
     10 C          65.6359   91.9309   14.5068 C.3     1  UNL1        0.1256
     11 C          66.8095   92.8538   14.6515 C.3     1  UNL1        0.0945
     12 C          67.4817   93.0091   15.9834 C.3     1  UNL1        0.0233
     13 N          67.3109   93.6213   13.4643 N.am    1  UNL1       -0.2994
     14 C          66.6387   93.4659   12.1323 C.2     1  UNL1        0.2618
     15 O          67.1401   94.2335   10.9451 O.2     1  UNL1       -0.2686
     16 H          68.0811   94.2270   13.5593 H       1  UNL1        0.1498
     17 O          60.4586   88.8482   10.5596 O.3     1  UNL1       -0.4791
     18 N          61.4040   85.7101    7.4760 N.3     1  UNL1       -0.2737
     19 C          60.0924   86.4364    7.4292 C.3     1  UNL1        0.0758
     20 C          59.7772   87.4824    8.4571 C.3     1  UNL1        0.0609
     21 C          60.7737   87.8022    9.5318 C.3     1  UNL1        0.1687
     22 C          62.0853   87.0758    9.5785 C.3     1  UNL1        0.0609
     23 C          62.4004   86.0299    8.5506 C.3     1  UNL1        0.0758
     24 C          63.1234   84.5058    5.9453 C.3     1  UNL1        0.0173
     25 C          61.7191   84.6641    6.4481 C.3     1  UNL1        0.0576
     26 C          60.6298   83.7764    5.9231 C.3     1  UNL1        0.0173
@<TRIPOS>BOND
     1    24    25    1
     2    25    26    1
     3    25    18    1
     4    18    19    1
     5    19    20    1
     6    20    21    1
     7    21    17    1
     8    17     1    1
     9     1     2   ar
    10     2     3   ar
    11     3     4   ar
    12     4     5   ar
    13     5     6   ar
    14     5     7   ar
    15     7     8   ar
    16     8     9   ar
    17     9    10    1
    18    10    11    1
    19    11    12    1
    20    11    13    1
    21    13    14   am
    22    14    15    2
    23    21    22    1
    24    22    23    1
    25    23    18    1
    26     6     1   ar
    27    14     8    1
    28     9     4   ar
    29    13    16    1
@<TRIPOS>MOLECULE
*****
 26 29 0 0 0
SMALL
GASTEIGER

@<TRIPOS>ATOM
      1 C          62.2816   89.0121   11.1528 C.ar    1  UNL1        0.1385
      2 C          62.3367   89.9893   10.0161 C.ar    1  UNL1        0.0384
      3 C          63.1822   91.2232   10.1282 C.ar    1  UNL1        0.0203
      4 C          63.9726   91.4799   11.3770 C.ar    1  UNL1        0.0602
      5 C          63.9176   90.5027   12.5136 C.ar    1  UNL1        0.0204
      6 C          63.0720   89.2688   12.4015 C.ar    1  UNL1        0.0384
      7 C          64.7988   91.0192   13.6120 C.ar    1  UNL1        0.0233
      8 C          65.3986   92.3156   13.1543 C.ar    1  UNL1        0.1140
      9 N          64.8880   92.6004   11.7729 N.ar    1  UNL1       -0.3219
     10 C          65.3225   93.8431   11.0541 C.3     1  UNL1        0.1256
     11 C          66.2676   94.8011   11.7166 C.3     1  UNL1        0.0945
     12 C          66.7021   96.0439   10.9978 C.3     1  UNL1        0.0233
     13 N          66.7782   94.5163   13.0980 N.am    1  UNL1       -0.2994
     14 C          66.3437   93.2735   13.8168 C.2     1  UNL1        0.2618
     15 O          66.8543   92.9888   15.1983 O.2     1  UNL1       -0.2686
     16 H          67.3985   95.1451   13.5329 H       1  UNL1        0.1498
     17 O          61.4360   87.7782   11.0407 O.3     1  UNL1       -0.4791
     18 N          61.6040   85.2666    7.3106 N.3     1  UNL1       -0.2737
     19 C          60.3585   86.0335    7.6429 C.3     1  UNL1        0.0758
     20 C          60.3024   86.8707    8.8863 C.3     1  UNL1        0.0609
     21 C          61.4920   86.9410    9.7974 C.3     1  UNL1        0.1687
     22 C          62.7376   86.1741    9.4650 C.3     1  UNL1        0.0609
     23 C          62.7936   85.3369    8.2216 C.3     1  UNL1        0.0758
     24 C          62.8682   84.4841    5.1801 C.3     1  UNL1        0.0173
     25 C          61.6600   84.4294    6.0673 C.3     1  UNL1        0.0576
     26 C          60.5076   83.5376    5.7111 C.3     1  UNL1        0.0173
@<TRIPOS>BOND
     1    24    25    1
     2    25    26    1
     3    25    18    1
     4    18    19    1
     5    19    20    1
     6    20    21    1
     7    21    17    1
     8    17     1    1
     9     1     2   ar
    10     2     3   ar
    11     3     4   ar
    12     4     5   ar
    13     5     6   ar
    14     5     7   ar
    15     7     8   ar
    16     8     9   ar
    17     9    10    1
    18    10    11    1
    19    11    12    1
    20    11    13    1
    21    13    14   am
    22    14    15    2
    23    21    22    1
    24    22    23    1
    25    23    18    1
    26     6     1   ar
    27    14     8    1
    28     9     4   ar
    29    13    16    1
@<TRIPOS>MOLECULE
*****
 26 29 0 0 0
SMALL
GASTEIGER

@<TRIPOS>ATOM
      1 C          64.0629   89.9893   13.8960 C.ar    1  UNL1        0.1385
      2 C          64.5777   89.0662   14.9603 C.ar    1  UNL1        0.0384
      3 C          64.4289   87.5820   14.8019 C.ar    1  UNL1        0.0203
      4 C          63.7654   87.0210   13.5792 C.ar    1  UNL1        0.0602
      5 C          63.2507   87.9442   12.5149 C.ar    1  UNL1        0.0204
      6 C          63.3994   89.4283   12.6733 C.ar    1  UNL1        0.0384
      7 C          62.6456   87.1064   11.4276 C.ar    1  UNL1        0.0233
      8 C          62.7864   85.6655   11.8200 C.ar    1  UNL1        0.1140
      9 N          63.4785   85.6127   13.1497 N.ar    1  UNL1       -0.3219
     10 C          63.7580   84.2891   13.7977 C.3     1  UNL1        0.1256
     11 C          63.3454   83.0183   13.1159 C.3     1  UNL1        0.0945
     12 C          63.6249   81.6947   13.7639 C.3     1  UNL1        0.0233
     13 N          62.6533   83.0711   11.7862 N.am    1  UNL1       -0.2994
     14 C          62.3738   84.3948   11.1382 C.2     1  UNL1        0.2618
     15 O          61.6817   84.4476    9.8084 O.2     1  UNL1       -0.2686
     16 H          62.3825   82.2370   11.3388 H       1  UNL1        0.1498
     17 O          64.2117   91.4735   14.0544 O.3     1  UNL1       -0.4791
     18 N          66.4133   93.8594   10.9382 N.3     1  UNL1       -0.2737
     19 C          65.3528   92.8828   10.5242 C.3     1  UNL1        0.0758
     20 C          64.6189   92.0874   11.5629 C.3     1  UNL1        0.0609
     21 C          64.9456   92.2688   13.0157 C.3     1  UNL1        0.1687
     22 C          66.0061   93.2455   13.4297 C.3     1  UNL1        0.0609
     23 C          66.7400   94.0408   12.3910 C.3     1  UNL1        0.0758
     24 C          68.0918   93.9681    8.9582 C.3     1  UNL1        0.0173
     25 C          67.1472   94.6547    9.8995 C.3     1  UNL1        0.0576
     26 C          66.9364   96.1367    9.8022 C.3     1  UNL1        0.0173
@<TRIPOS>BOND
     1    24    25    1
     2    25    26    1
     3    25    18    1
     4    18    19    1
     5    19    20    1
     6    20    21    1
     7    21    17    1
     8    17     1    1
     9     1     2   ar
    10     2     3   ar
    11     3     4   ar
    12     4     5   ar
    13     5     6   ar
    14     5     7   ar
    15     7     8   ar
    16     8     9   ar
    17     9    10    1
    18    10    11    1
    19    11    12    1
    20    11    13    1
    21    13    14   am
    22    14    15    2
    23    21    22    1
    24    22    23    1
    25    23    18    1
    26     6     1   ar
    27    14     8    1
    28     9     4   ar
    29    13    16    1
@<TRIPOS>MOLECULE
*****
 26 29 0 0 0
SMALL
GASTEIGER

@<TRIPOS>ATOM
      1 C          63.8356   87.9565   15.2384 C.ar    1  UNL1        0.1385
      2 C          63.5287   86.9531   16.3104 C.ar    1  UNL1        0.0384
      3 C          63.2831   85.5187   15.9468 C.ar    1  UNL1        0.0203
      4 C          63.3443   85.0878   14.5114 C.ar    1  UNL1        0.0602
      5 C          63.6511   86.0911   13.4395 C.ar    1  UNL1        0.0204
      6 C          63.8967   87.5255   13.8030 C.ar    1  UNL1        0.0384
      7 C          63.6446   85.3769   12.1204 C.ar    1  UNL1        0.0233
      8 C          63.3338   83.9321   12.3771 C.ar    1  UNL1        0.1140
      9 N          63.1482   83.7533   13.8548 N.ar    1  UNL1       -0.3219
     10 C          62.8246   82.3987   14.4116 C.3     1  UNL1        0.1256
     11 C          62.6866   81.2227   13.4907 C.3     1  UNL1        0.0945
     12 C          62.3630   79.8680   14.0475 C.3     1  UNL1        0.0233
     13 N          62.8722   81.4015   12.0130 N.am    1  UNL1       -0.2994
     14 C          63.1958   82.7562   11.4562 C.2     1  UNL1        0.2618
     15 O          63.3814   82.9349    9.9785 O.2     1  UNL1       -0.2686
     16 H          62.7816   80.6297   11.4086 H       1  UNL1        0.1498
     17 O          64.0812   89.3909   15.6020 O.3     1  UNL1       -0.4791
     18 N          65.7997   92.2217   12.5551 N.3     1  UNL1       -0.2737
     19 C          64.4091   91.6871   12.3817 C.3     1  UNL1        0.0758
     20 C          63.8362   90.7435   13.3973 C.3     1  UNL1        0.0609
     21 C          64.6540   90.3345   14.5864 C.3     1  UNL1        0.1687
     22 C          66.0448   90.8692   14.7598 C.3     1  UNL1        0.0609
     23 C          66.6176   91.8127   13.7441 C.3     1  UNL1        0.0758
     24 C          67.1513   92.6306   10.3743 C.3     1  UNL1        0.0173
     25 C          66.3726   93.1653   11.5395 C.3     1  UNL1        0.0576
     26 C          66.1667   94.6436   11.6891 C.3     1  UNL1        0.0173
@<TRIPOS>BOND
     1    24    25    1
     2    25    26    1
     3    25    18    1
     4    18    19    1
     5    19    20    1
     6    20    21    1
     7    21    17    1
     8    17     1    1
     9     1     2   ar
    10     2     3   ar
    11     3     4   ar
    12     4     5   ar
    13     5     6   ar
    14     5     7   ar
    15     7     8   ar
    16     8     9   ar
    17     9    10    1
    18    10    11    1
    19    11    12    1
    20    11    13    1
    21    13    14   am
    22    14    15    2
    23    21    22    1
    24    22    23    1
    25    23    18    1
    26     6     1   ar
    27    14     8    1
    28     9     4   ar
    29    13    16    1
@<TRIPOS>MOLECULE
*****
 26 29 0 0 0
SMALL
GASTEIGER

@<TRIPOS>ATOM
      1 C          63.5817   89.4415   13.0861 C.ar    1  UNL1        0.1385
      2 C          62.9174   88.8842   11.8621 C.ar    1  UNL1        0.0384
      3 C          62.7757   87.4002   11.6957 C.ar    1  UNL1        0.0203
      4 C          63.2983   86.4736   12.7532 C.ar    1  UNL1        0.0602
      5 C          63.9625   87.0310   13.9772 C.ar    1  UNL1        0.0204
      6 C          64.1042   88.5149   14.1436 C.ar    1  UNL1        0.0384
      7 C          64.3769   85.8796   14.8446 C.ar    1  UNL1        0.0233
      8 C          63.9687   84.6106   14.1568 C.ar    1  UNL1        0.1140
      9 N          63.3021   84.9777   12.8642 N.ar    1  UNL1       -0.3219
     10 C          62.7847   83.9025   11.9554 C.3     1  UNL1        0.1256
     11 C          62.9339   82.4601   12.3390 C.3     1  UNL1        0.0945
     12 C          62.4165   81.3848   11.4301 C.3     1  UNL1        0.0233
     13 N          63.6005   82.0930   13.6316 N.am    1  UNL1       -0.2994
     14 C          64.1179   83.1683   14.5405 C.2     1  UNL1        0.2618
     15 O          64.7846   82.8011   15.8332 O.2     1  UNL1       -0.2686
     16 H          63.6985   81.1463   13.8835 H       1  UNL1        0.1498
     17 O          63.7234   90.9256   13.2526 O.3     1  UNL1       -0.4791
     18 N          67.4151   92.6312   15.1793 N.3     1  UNL1       -0.2737
     19 C          67.4009   92.3468   13.7066 C.3     1  UNL1        0.0758
     20 C          66.1703   91.7782   13.0643 C.3     1  UNL1        0.0609
     21 C          64.9539   91.4941   13.8948 C.3     1  UNL1        0.1687
     22 C          64.9681   91.7786   15.3676 C.3     1  UNL1        0.0609
     23 C          66.1987   92.3471   16.0098 C.3     1  UNL1        0.0758
     24 C          69.6446   92.2862   16.4678 C.3     1  UNL1        0.0173
     25 C          68.6456   93.1997   15.8215 C.3     1  UNL1        0.0576
     26 C          68.8772   94.6818   15.8175 C.3     1  UNL1        0.0173
@<TRIPOS>BOND
     1    24    25    1
     2    25    26    1
     3    25    18    1
     4    18    19    1
     5    19    20    1
     6    20    21    1
     7    21    17    1
     8    17     1    1
     9     1     2   ar
    10     2     3   ar
    11     3     4   ar
    12     4     5   ar
    13     5     6   ar
    14     5     7   ar
    15     7     8   ar
    16     8     9   ar
    17     9    10    1
    18    10    11    1
    19    11    12    1
    20    11    13    1
    21    13    14   am
    22    14    15    2
    23    21    22    1
    24    22    23    1
    25    23    18    1
    26     6     1   ar
    27    14     8    1
    28     9     4   ar
    29    13    16    1
