@<TRIPOS>MOLECULE
*****
 31 34 0 0 0
SMALL
GASTEIGER

@<TRIPOS>ATOM
      1 C          60.9666   88.7941    9.8426 C.ar    1  UNL1        0.0678
      2 C          59.9005   88.6234    8.8013 C.ar    1  UNL1        0.0055
      3 C          59.8403   87.3639    7.9889 C.ar    1  UNL1        0.0016
      4 C          60.8464   86.2751    8.2176 C.ar    1  UNL1        0.0181
      5 C          61.9126   86.4459    9.2589 C.ar    1  UNL1        0.0922
      6 C          61.9727   87.7053   10.0714 C.ar    1  UNL1        0.1576
      7 F          63.0388   87.8760   11.1126 F       1  UNL1       -0.2027
      8 C          61.0267   90.0536   10.6551 C.2     1  UNL1        0.2014
      9 O          59.7627   90.6717   11.1751 O.2     1  UNL1       -0.2864
     10 C          63.7525   90.0343   14.6906 C.2     1  UNL1        0.0974
     11 C          65.0225   90.8180   14.5391 C.2     1  UNL1        0.2421
     12 N          65.3317   91.5013   13.2401 N.2     1  UNL1       -0.0304
     13 C          64.3709   91.4009   12.0925 C.2     1  UNL1        0.3721
     14 N          64.4056   91.9631   10.7023 N.2     1  UNL1       -0.0307
     15 C          63.1570   91.5268    9.9946 C.2     1  UNL1        0.2390
     16 C          62.3507   90.6950   10.9474 C.2     1  UNL1        0.0895
     17 C          63.1010   90.6171   12.2440 C.2     1  UNL1        0.0782
     18 C          62.7918   89.9338   13.5431 C.3     1  UNL1        0.0751
     19 N          63.1341   88.6676   17.2887 N.1     1  UNL1       -0.1910
     20 C          63.4433   89.3509   15.9896 C.1     1  UNL1        0.1003
     21 N          62.9186   85.3570    9.4877 N.pl3   1  UNL1       -0.2128
     22 H          63.6541   85.2238    8.8469 H       1  UNL1        0.1738
     23 S          62.8041   84.4712   10.6927 S.O2    1  UNL1        0.0751
     24 O          63.9940   83.6851   10.2280 O.2     1  UNL1       -0.1499
     25 O          61.6142   85.2573   11.1576 O.2     1  UNL1       -0.1499
     26 C          62.6896   83.5853   11.8979 C.ar    1  UNL1        0.1442
     27 C          62.6633   82.0947   11.7331 C.ar    1  UNL1        0.0234
     28 C          62.5487   81.2088   12.9381 C.ar    1  UNL1        0.0221
     29 C          62.4605   81.8136   14.3080 C.ar    1  UNL1        0.0990
     30 N          62.4869   83.3043   14.4728 N.ar    1  UNL1       -0.2409
     31 C          62.6014   84.1902   13.2677 C.ar    1  UNL1        0.1190
@<TRIPOS>BOND
     1    19    20    3
     2    20    10    1
     3    10    11    2
     4    11    12    1
     5    12    13    2
     6    13    14    1
     7    14    15    2
     8    15    16    1
     9    16     8    1
    10     8     9    2
    11     8     1    1
    12     1     2   ar
    13     2     3   ar
    14     3     4   ar
    15     4     5   ar
    16     5    21    1
    17    21    23    1
    18    23    24    2
    19    23    25    2
    20    23    26    1
    21    26    27   ar
    22    27    28   ar
    23    28    29   ar
    24    29    30   ar
    25    30    31   ar
    26     5     6   ar
    27     6     7    1
    28    16    17    2
    29    17    18    1
    30    18    10    1
    31    17    13    1
    32     6     1   ar
    33    31    26   ar
    34    21    22    1
@<TRIPOS>MOLECULE
*****
 31 34 0 0 0
SMALL
GASTEIGER

@<TRIPOS>ATOM
      1 C          63.3812   88.4603   16.2430 C.ar    1  UNL1        0.0678
      2 C          62.6820   87.9486   17.4675 C.ar    1  UNL1        0.0055
      3 C          62.6392   86.4754   17.7463 C.ar    1  UNL1        0.0016
      4 C          63.2957   85.5137   16.8007 C.ar    1  UNL1        0.0181
      5 C          63.9950   86.0254   15.5761 C.ar    1  UNL1        0.0922
      6 C          64.0377   87.4987   15.2973 C.ar    1  UNL1        0.1576
      7 F          64.7369   88.0102   14.0728 F       1  UNL1       -0.2027
      8 C          63.4239   89.9335   15.9642 C.2     1  UNL1        0.2014
      9 O          63.1609   90.9138   17.0687 O.2     1  UNL1       -0.2864
     10 C          67.0237   92.7701   14.3175 C.2     1  UNL1        0.0974
     11 C          66.9433   93.0137   12.8397 C.2     1  UNL1        0.2421
     12 N          65.8318   92.4033   12.0383 N.2     1  UNL1       -0.0304
     13 C          64.8008   91.5494   12.7148 C.2     1  UNL1        0.3721
     14 N          63.5995   90.8206   12.1896 N.2     1  UNL1       -0.0307
     15 C          62.9375   90.1266   13.3429 C.2     1  UNL1        0.2390
     16 C          63.7296   90.4264   14.5809 C.2     1  UNL1        0.0895
     17 C          64.8812   91.3058   14.1927 C.2     1  UNL1        0.0782
     18 C          65.9927   91.9161   14.9940 C.3     1  UNL1        0.0751
     19 N          69.2466   93.9908   15.9202 N.1     1  UNL1       -0.1910
     20 C          68.1351   93.3804   15.1189 C.1     1  UNL1        0.1003
     21 N          64.6515   85.0638   14.6305 N.pl3   1  UNL1       -0.2128
     22 H          65.5459   85.2614   14.2697 H       1  UNL1        0.1738
     23 S          63.9452   83.8011   14.2345 S.O2    1  UNL1        0.0751
     24 O          63.3108   84.5180   13.0798 O.2     1  UNL1       -0.1499
     25 O          64.5796   83.0841   15.3892 O.2     1  UNL1       -0.1499
     26 C          63.2389   82.5384   13.8386 C.ar    1  UNL1        0.1442
     27 C          61.9627   82.1469   14.5226 C.ar    1  UNL1        0.0234
     28 C          61.2563   80.8842   14.1267 C.ar    1  UNL1        0.0221
     29 C          61.8263   80.0130   13.0468 C.ar    1  UNL1        0.0990
     30 N          63.1025   80.4045   12.3628 N.ar    1  UNL1       -0.2409
     31 C          63.8088   81.6672   12.7587 C.ar    1  UNL1        0.1190
@<TRIPOS>BOND
     1    19    20    3
     2    20    10    1
     3    10    11    2
     4    11    12    1
     5    12    13    2
     6    13    14    1
     7    14    15    2
     8    15    16    1
     9    16     8    1
    10     8     9    2
    11     8     1    1
    12     1     2   ar
    13     2     3   ar
    14     3     4   ar
    15     4     5   ar
    16     5    21    1
    17    21    23    1
    18    23    24    2
    19    23    25    2
    20    23    26    1
    21    26    27   ar
    22    27    28   ar
    23    28    29   ar
    24    29    30   ar
    25    30    31   ar
    26     5     6   ar
    27     6     7    1
    28    16    17    2
    29    17    18    1
    30    18    10    1
    31    17    13    1
    32     6     1   ar
    33    31    26   ar
    34    21    22    1
@<TRIPOS>MOLECULE
*****
 31 34 0 0 0
SMALL
GASTEIGER

@<TRIPOS>ATOM
      1 C          61.9923   90.7417   11.0700 C.ar    1  UNL1        0.0678
      2 C          62.9384   91.3673   10.0885 C.ar    1  UNL1        0.0055
      3 C          64.2878   91.8387   10.5435 C.ar    1  UNL1        0.0016
      4 C          64.6910   91.6844   11.9800 C.ar    1  UNL1        0.0181
      5 C          63.7448   91.0587   12.9615 C.ar    1  UNL1        0.0922
      6 C          62.3955   90.5873   12.5065 C.ar    1  UNL1        0.1576
      7 F          61.4494   89.9617   13.4881 F       1  UNL1       -0.2027
      8 C          60.6429   90.2703   10.6150 C.2     1  UNL1        0.2014
      9 O          59.4009   90.8864   11.1874 O.2     1  UNL1       -0.2864
     10 C          62.2660   85.6790   10.6563 C.2     1  UNL1        0.0974
     11 C          61.9311   84.9318    9.3996 C.2     1  UNL1        0.2421
     12 N          61.1717   85.6145    8.3008 N.2     1  UNL1       -0.0304
     13 C          60.7472   87.0445    8.4589 C.2     1  UNL1        0.3721
     14 N          59.9937   87.9737    7.5540 N.2     1  UNL1       -0.0307
     15 C          59.8629   89.2952    8.2516 C.2     1  UNL1        0.2390
     16 C          60.5356   89.1827    9.5875 C.2     1  UNL1        0.0895
     17 C          61.0822   87.7917    9.7156 C.2     1  UNL1        0.0782
     18 C          61.8415   87.1089   10.8143 C.3     1  UNL1        0.0751
     19 N          63.7848   84.3135   12.8538 N.1     1  UNL1       -0.1910
     20 C          63.0254   84.9962   11.7550 C.1     1  UNL1        0.1003
     21 N          64.1481   90.9044   14.3980 N.pl3   1  UNL1       -0.2128
     22 H          64.5771   91.6531   14.8720 H       1  UNL1        0.1738
     23 S          63.8977   89.6095   15.1124 S.O2    1  UNL1        0.0751
     24 O          64.6668   88.8766   14.0536 O.2     1  UNL1       -0.1499
     25 O          63.1285   90.3423   16.1713 O.2     1  UNL1       -0.1499
     26 C          63.6472   88.3145   15.8268 C.ar    1  UNL1        0.1442
     27 C          62.9406   88.3124   17.1499 C.ar    1  UNL1        0.0234
     28 C          62.6901   87.0175   17.8644 C.ar    1  UNL1        0.0221
     29 C          63.1463   85.7246   17.2557 C.ar    1  UNL1        0.0990
     30 N          63.8530   85.7267   15.9327 N.ar    1  UNL1       -0.2409
     31 C          64.1035   87.0216   15.2182 C.ar    1  UNL1        0.1190
@<TRIPOS>BOND
     1    19    20    3
     2    20    10    1
     3    10    11    2
     4    11    12    1
     5    12    13    2
     6    13    14    1
     7    14    15    2
     8    15    16    1
     9    16     8    1
    10     8     9    2
    11     8     1    1
    12     1     2   ar
    13     2     3   ar
    14     3     4   ar
    15     4     5   ar
    16     5    21    1
    17    21    23    1
    18    23    24    2
    19    23    25    2
    20    23    26    1
    21    26    27   ar
    22    27    28   ar
    23    28    29   ar
    24    29    30   ar
    25    30    31   ar
    26     5     6   ar
    27     6     7    1
    28    16    17    2
    29    17    18    1
    30    18    10    1
    31    17    13    1
    32     6     1   ar
    33    31    26   ar
    34    21    22    1
@<TRIPOS>MOLECULE
*****
 31 34 0 0 0
SMALL
GASTEIGER

@<TRIPOS>ATOM
      1 C          61.7109   86.4026    9.5104 C.ar    1  UNL1        0.0678
      2 C          60.5299   86.1243    8.6285 C.ar    1  UNL1        0.0055
      3 C          59.6195   87.2437    8.2187 C.ar    1  UNL1        0.0016
      4 C          59.8900   88.6416    8.6907 C.ar    1  UNL1        0.0181
      5 C          61.0711   88.9199    9.5726 C.ar    1  UNL1        0.0922
      6 C          61.9815   87.8005    9.9825 C.ar    1  UNL1        0.1576
      7 F          63.1625   88.0789   10.8644 F       1  UNL1       -0.2027
      8 C          62.6213   85.2832    9.9202 C.2     1  UNL1        0.2014
      9 O          63.4891   84.6099    8.8986 O.2     1  UNL1       -0.2864
     10 C          62.7754   80.8195   11.8613 C.2     1  UNL1        0.0974
     11 C          62.8080   80.8375   13.3608 C.2     1  UNL1        0.2421
     12 N          62.7916   82.1450   14.0956 N.2     1  UNL1       -0.0304
     13 C          62.7426   83.4346   13.3310 C.2     1  UNL1        0.3721
     14 N          62.7167   84.8662   13.7780 N.2     1  UNL1       -0.0307
     15 C          62.6681   85.7329   12.5547 C.2     1  UNL1        0.2390
     16 C          62.6640   84.8370   11.3517 C.2     1  UNL1        0.0895
     17 C          62.7100   83.4165   11.8315 C.2     1  UNL1        0.0782
     18 C          62.7264   82.1090   11.0966 C.3     1  UNL1        0.0751
     19 N          62.8083   78.2044   10.3915 N.1     1  UNL1       -0.1910
     20 C          62.7919   79.5119   11.1264 C.1     1  UNL1        0.1003
     21 N          61.3417   90.3178   10.0447 N.pl3   1  UNL1       -0.2128
     22 H          60.8752   91.0774    9.6267 H       1  UNL1        0.1738
     23 S          62.3228   90.5582   11.1535 S.O2    1  UNL1        0.0751
     24 O          63.3421   91.0154   10.1525 O.2     1  UNL1       -0.1499
     25 O          61.3036   90.1011   12.1545 O.2     1  UNL1       -0.1499
     26 C          63.3040   90.7987   12.2624 C.ar    1  UNL1        0.1442
     27 C          63.3107   89.9026   13.4653 C.ar    1  UNL1        0.0234
     28 C          64.2918   90.1430   14.5741 C.ar    1  UNL1        0.0221
     29 C          65.2662   91.2796   14.4801 C.ar    1  UNL1        0.0990
     30 N          65.2595   92.1757   13.2773 N.ar    1  UNL1       -0.2409
     31 C          64.2784   91.9352   12.1684 C.ar    1  UNL1        0.1190
@<TRIPOS>BOND
     1    19    20    3
     2    20    10    1
     3    10    11    2
     4    11    12    1
     5    12    13    2
     6    13    14    1
     7    14    15    2
     8    15    16    1
     9    16     8    1
    10     8     9    2
    11     8     1    1
    12     1     2   ar
    13     2     3   ar
    14     3     4   ar
    15     4     5   ar
    16     5    21    1
    17    21    23    1
    18    23    24    2
    19    23    25    2
    20    23    26    1
    21    26    27   ar
    22    27    28   ar
    23    28    29   ar
    24    29    30   ar
    25    30    31   ar
    26     5     6   ar
    27     6     7    1
    28    16    17    2
    29    17    18    1
    30    18    10    1
    31    17    13    1
    32     6     1   ar
    33    31    26   ar
    34    21    22    1
@<TRIPOS>MOLECULE
*****
 31 34 0 0 0
SMALL
GASTEIGER

@<TRIPOS>ATOM
      1 C          62.3786   88.7666   11.0457 C.ar    1  UNL1        0.0678
      2 C          61.3395   88.1998   10.1243 C.ar    1  UNL1        0.0055
      3 C          60.9858   86.7439   10.1977 C.ar    1  UNL1        0.0016
      4 C          61.6713   85.8548   11.1925 C.ar    1  UNL1        0.0181
      5 C          62.7105   86.4217   12.1139 C.ar    1  UNL1        0.0922
      6 C          63.0641   87.8776   12.0405 C.ar    1  UNL1        0.1576
      7 F          64.1033   88.4444   12.9619 F       1  UNL1       -0.2027
      8 C          62.7322   90.2225   10.9723 C.2     1  UNL1        0.2014
      9 O          62.3857   91.0177    9.7485 O.2     1  UNL1       -0.2864
     10 C          66.3455   93.4866   11.0510 C.2     1  UNL1        0.0974
     11 C          66.7437   93.8807   12.4424 C.2     1  UNL1        0.2421
     12 N          66.0423   93.2768   13.6228 N.2     1  UNL1       -0.0304
     13 C          64.9426   92.2788   13.4118 C.2     1  UNL1        0.3721
     14 N          64.0766   91.5210   14.3740 N.2     1  UNL1       -0.0307
     15 C          63.1432   90.6584   13.5773 C.2     1  UNL1        0.2390
     16 C          63.4323   90.8832   12.1226 C.2     1  UNL1        0.0895
     17 C          64.5444   91.8846   12.0204 C.2     1  UNL1        0.0782
     18 C          65.2458   92.4885   10.8400 C.3     1  UNL1        0.0751
     19 N          67.7484   94.6943    8.6903 N.1     1  UNL1       -0.1910
     20 C          67.0469   94.0904    9.8707 C.1     1  UNL1        0.1003
     21 N          63.3960   85.5326   13.1087 N.pl3   1  UNL1       -0.2128
     22 H          64.0559   85.9106   13.7340 H       1  UNL1        0.1738
     23 S          63.0762   84.0677   13.1508 S.O2    1  UNL1        0.0751
     24 O          62.0559   84.3211   14.2206 O.2     1  UNL1       -0.1499
     25 O          64.0965   83.8143   12.0809 O.2     1  UNL1       -0.1499
     26 C          62.7564   82.6028   13.1928 C.ar    1  UNL1        0.1442
     27 C          63.0859   81.7293   12.0187 C.ar    1  UNL1        0.0234
     28 C          62.7662   80.2644   12.0607 C.ar    1  UNL1        0.0221
     29 C          62.1169   79.6730   13.2767 C.ar    1  UNL1        0.0990
     30 N          61.7873   80.5464   14.4507 N.ar    1  UNL1       -0.2409
     31 C          62.1071   82.0113   14.4088 C.ar    1  UNL1        0.1190
@<TRIPOS>BOND
     1    19    20    3
     2    20    10    1
     3    10    11    2
     4    11    12    1
     5    12    13    2
     6    13    14    1
     7    14    15    2
     8    15    16    1
     9    16     8    1
    10     8     9    2
    11     8     1    1
    12     1     2   ar
    13     2     3   ar
    14     3     4   ar
    15     4     5   ar
    16     5    21    1
    17    21    23    1
    18    23    24    2
    19    23    25    2
    20    23    26    1
    21    26    27   ar
    22    27    28   ar
    23    28    29   ar
    24    29    30   ar
    25    30    31   ar
    26     5     6   ar
    27     6     7    1
    28    16    17    2
    29    17    18    1
    30    18    10    1
    31    17    13    1
    32     6     1   ar
    33    31    26   ar
    34    21    22    1
@<TRIPOS>MOLECULE
*****
 31 34 0 0 0
SMALL
GASTEIGER

@<TRIPOS>ATOM
      1 C          63.6238   90.7061   12.8055 C.ar    1  UNL1        0.0678
      2 C          63.5698   90.3258   14.2555 C.ar    1  UNL1        0.0055
      3 C          64.6843   90.7236   15.1772 C.ar    1  UNL1        0.0016
      4 C          65.8529   91.5017   14.6490 C.ar    1  UNL1        0.0181
      5 C          65.9069   91.8820   13.1990 C.ar    1  UNL1        0.0922
      6 C          64.7924   91.4843   12.2772 C.ar    1  UNL1        0.1576
      7 F          64.8465   91.8646   10.8273 F       1  UNL1       -0.2027
      8 C          62.5093   90.3083   11.8837 C.2     1  UNL1        0.2014
      9 O          61.5711   91.3491   11.3485 O.2     1  UNL1       -0.2864
     10 C          60.1384   88.2836    8.1427 C.2     1  UNL1        0.0974
     11 C          60.2220   86.7860    8.1424 C.2     1  UNL1        0.2421
     12 N          60.9805   86.0769    9.2250 N.2     1  UNL1       -0.0304
     13 C          61.6554   86.8655   10.3079 C.2     1  UNL1        0.3721
     14 N          62.4683   86.4465   11.4968 N.2     1  UNL1       -0.0307
     15 C          62.8871   87.6852   12.2319 C.2     1  UNL1        0.2390
     16 C          62.3331   88.8698   11.4972 C.2     1  UNL1        0.0895
     17 C          61.5718   88.3632   10.3081 C.2     1  UNL1        0.0782
     18 C          60.8134   89.0722    9.2255 C.3     1  UNL1        0.0751
     19 N          58.6215   89.7017    5.9775 N.1     1  UNL1       -0.1910
     20 C          59.3800   88.9926    7.0601 C.1     1  UNL1        0.1003
     21 N          67.0754   92.6602   12.6708 N.pl3   1  UNL1       -0.2128
     22 H          67.9791   92.4913   13.0232 H       1  UNL1        0.1738
     23 S          66.8673   93.6956   11.6057 S.O2    1  UNL1        0.0751
     24 O          66.0916   94.5371   12.5753 O.2     1  UNL1       -0.1499
     25 O          67.6429   92.8542   10.6360 O.2     1  UNL1       -0.1499
     26 C          66.6591   94.7311   10.5405 C.ar    1  UNL1        0.1442
     27 C          67.4625   94.6771    9.2749 C.ar    1  UNL1        0.0234
     28 C          67.2543   95.7125    8.2098 C.ar    1  UNL1        0.0221
     29 C          66.2429   96.8019    8.4102 C.ar    1  UNL1        0.0990
     30 N          65.4395   96.8559    9.6757 N.ar    1  UNL1       -0.2409
     31 C          65.6476   95.8205   10.7409 C.ar    1  UNL1        0.1190
@<TRIPOS>BOND
     1    19    20    3
     2    20    10    1
     3    10    11    2
     4    11    12    1
     5    12    13    2
     6    13    14    1
     7    14    15    2
     8    15    16    1
     9    16     8    1
    10     8     9    2
    11     8     1    1
    12     1     2   ar
    13     2     3   ar
    14     3     4   ar
    15     4     5   ar
    16     5    21    1
    17    21    23    1
    18    23    24    2
    19    23    25    2
    20    23    26    1
    21    26    27   ar
    22    27    28   ar
    23    28    29   ar
    24    29    30   ar
    25    30    31   ar
    26     5     6   ar
    27     6     7    1
    28    16    17    2
    29    17    18    1
    30    18    10    1
    31    17    13    1
    32     6     1   ar
    33    31    26   ar
    34    21    22    1
@<TRIPOS>MOLECULE
*****
 31 34 0 0 0
SMALL
GASTEIGER

@<TRIPOS>ATOM
      1 C          62.3304   89.1760   11.1206 C.ar    1  UNL1        0.0678
      2 C          62.6530   90.0027    9.9112 C.ar    1  UNL1        0.0055
      3 C          63.4452   91.2680   10.0572 C.ar    1  UNL1        0.0016
      4 C          63.9149   91.7067   11.4125 C.ar    1  UNL1        0.0181
      5 C          63.5922   90.8800   12.6219 C.ar    1  UNL1        0.0922
      6 C          62.8000   89.6147   12.4760 C.ar    1  UNL1        0.1576
      7 F          62.4774   88.7881   13.6854 F       1  UNL1       -0.2027
      8 C          61.5381   87.9107   10.9746 C.2     1  UNL1        0.2014
      9 O          60.1699   87.8084   11.5808 O.2     1  UNL1       -0.2864
     10 C          63.5816   83.7865   12.5657 C.2     1  UNL1        0.0974
     11 C          64.0262   82.8887   11.4494 C.2     1  UNL1        0.2421
     12 N          63.8191   83.3060   10.0235 N.2     1  UNL1       -0.0304
     13 C          63.1675   84.6211    9.7140 C.2     1  UNL1        0.3721
     14 N          62.8334   85.2950    8.4162 N.2     1  UNL1       -0.0307
     15 C          62.1824   86.6093    8.7305 C.2     1  UNL1        0.2390
     16 C          62.1141   86.7478   10.2225 C.2     1  UNL1        0.0895
     17 C          62.7230   85.5190   10.8304 C.2     1  UNL1        0.0782
     18 C          62.9300   85.1017   12.2562 C.3     1  UNL1        0.0751
     19 N          63.9957   82.9520   15.4174 N.1     1  UNL1       -0.1910
     20 C          63.7887   83.3692   13.9915 C.1     1  UNL1        0.1003
     21 N          64.0619   91.3188   13.9772 N.pl3   1  UNL1       -0.2128
     22 H          63.4177   91.4080   14.7164 H       1  UNL1        0.1738
     23 S          65.5130   91.6214   14.2065 S.O2    1  UNL1        0.0751
     24 O          65.2822   93.0438   13.7901 O.2     1  UNL1       -0.1499
     25 O          65.7440   90.1990   14.6229 O.2     1  UNL1       -0.1499
     26 C          66.9643   91.9241   14.4357 C.ar    1  UNL1        0.1442
     27 C          67.4238   92.4248   15.7729 C.ar    1  UNL1        0.0234
     28 C          68.8749   92.7274   16.0022 C.ar    1  UNL1        0.0221
     29 C          69.8665   92.5294   14.8943 C.ar    1  UNL1        0.0990
     30 N          69.4070   92.0287   13.5571 N.ar    1  UNL1       -0.2409
     31 C          67.9559   91.7260   13.3278 C.ar    1  UNL1        0.1190
@<TRIPOS>BOND
     1    19    20    3
     2    20    10    1
     3    10    11    2
     4    11    12    1
     5    12    13    2
     6    13    14    1
     7    14    15    2
     8    15    16    1
     9    16     8    1
    10     8     9    2
    11     8     1    1
    12     1     2   ar
    13     2     3   ar
    14     3     4   ar
    15     4     5   ar
    16     5    21    1
    17    21    23    1
    18    23    24    2
    19    23    25    2
    20    23    26    1
    21    26    27   ar
    22    27    28   ar
    23    28    29   ar
    24    29    30   ar
    25    30    31   ar
    26     5     6   ar
    27     6     7    1
    28    16    17    2
    29    17    18    1
    30    18    10    1
    31    17    13    1
    32     6     1   ar
    33    31    26   ar
    34    21    22    1
@<TRIPOS>MOLECULE
*****
 31 34 0 0 0
SMALL
GASTEIGER

@<TRIPOS>ATOM
      1 C          62.1338   85.6566   10.0087 C.ar    1  UNL1        0.0678
      2 C          61.0827   85.5661    8.9425 C.ar    1  UNL1        0.0055
      3 C          60.0205   86.6207    8.8450 C.ar    1  UNL1        0.0016
      4 C          60.0094   87.7659    9.8137 C.ar    1  UNL1        0.0181
      5 C          61.0607   87.8564   10.8800 C.ar    1  UNL1        0.0922
      6 C          62.1229   86.8017   10.9775 C.ar    1  UNL1        0.1576
      7 F          63.1740   86.8923   12.0437 F       1  UNL1       -0.2027
      8 C          63.1960   84.6019   10.1062 C.2     1  UNL1        0.2014
      9 O          64.4112   84.6781    9.2302 O.2     1  UNL1       -0.2864
     10 C          63.0207   84.5914   14.9730 C.2     1  UNL1        0.0974
     11 C          62.8563   83.2153   15.5466 C.2     1  UNL1        0.2421
     12 N          62.7649   82.0283   14.6341 N.2     1  UNL1       -0.0304
     13 C          62.8379   82.2175   13.1479 C.2     1  UNL1        0.3721
     14 N          62.7769   81.2444   12.0080 N.2     1  UNL1       -0.0307
     15 C          62.9037   82.0192   10.7298 C.2     1  UNL1        0.2390
     16 C          63.0429   83.4711   11.0797 C.2     1  UNL1        0.0895
     17 C          63.0023   83.5936   12.5742 C.2     1  UNL1        0.0782
     18 C          63.0937   84.7806   13.4868 C.3     1  UNL1        0.0751
     19 N          63.2036   86.9653   16.7981 N.1     1  UNL1       -0.1910
     20 C          63.1121   85.7784   15.8855 C.1     1  UNL1        0.1003
     21 N          61.0497   89.0016   11.8487 N.pl3   1  UNL1       -0.2128
     22 H          60.2817   89.1291   12.4514 H       1  UNL1        0.1738
     23 S          62.2087   89.9524   11.8992 S.O2    1  UNL1        0.0751
     24 O          62.0675   90.2028   10.4271 O.2     1  UNL1       -0.1499
     25 O          62.3500   89.7019   13.3714 O.2     1  UNL1       -0.1499
     26 C          63.3678   90.9032   11.9498 C.ar    1  UNL1        0.1442
     27 C          63.8752   91.5349   10.6875 C.ar    1  UNL1        0.0234
     28 C          65.0342   92.4857   10.7380 C.ar    1  UNL1        0.0221
     29 C          65.6859   92.8049   12.0509 C.ar    1  UNL1        0.0990
     30 N          65.1785   92.1732   13.3132 N.ar    1  UNL1       -0.2409
     31 C          64.0194   91.2223   13.2627 C.ar    1  UNL1        0.1190
@<TRIPOS>BOND
     1    19    20    3
     2    20    10    1
     3    10    11    2
     4    11    12    1
     5    12    13    2
     6    13    14    1
     7    14    15    2
     8    15    16    1
     9    16     8    1
    10     8     9    2
    11     8     1    1
    12     1     2   ar
    13     2     3   ar
    14     3     4   ar
    15     4     5   ar
    16     5    21    1
    17    21    23    1
    18    23    24    2
    19    23    25    2
    20    23    26    1
    21    26    27   ar
    22    27    28   ar
    23    28    29   ar
    24    29    30   ar
    25    30    31   ar
    26     5     6   ar
    27     6     7    1
    28    16    17    2
    29    17    18    1
    30    18    10    1
    31    17    13    1
    32     6     1   ar
    33    31    26   ar
    34    21    22    1
@<TRIPOS>MOLECULE
*****
 31 34 0 0 0
SMALL
GASTEIGER

@<TRIPOS>ATOM
      1 C          62.0589   88.6126   10.5438 C.ar    1  UNL1        0.0678
      2 C          61.9596   89.8362    9.6819 C.ar    1  UNL1        0.0055
      3 C          62.6477   91.1031   10.0958 C.ar    1  UNL1        0.0016
      4 C          63.4352   91.1465   11.3718 C.ar    1  UNL1        0.0181
      5 C          63.5345   89.9228   12.2337 C.ar    1  UNL1        0.0922
      6 C          62.8464   88.6559   11.8198 C.ar    1  UNL1        0.1576
      7 F          62.9457   87.4323   12.6818 F       1  UNL1       -0.2027
      8 C          61.3708   87.3457   10.1298 C.2     1  UNL1        0.2014
      9 O          59.8781   87.2359   10.2294 O.2     1  UNL1       -0.2864
     10 C          63.1435   83.4324   12.4233 C.2     1  UNL1        0.0974
     11 C          63.9005   82.5152   11.5092 C.2     1  UNL1        0.2421
     12 N          64.0421   82.8546   10.0550 N.2     1  UNL1       -0.0304
     13 C          63.4266   84.1113    9.5149 C.2     1  UNL1        0.3721
     14 N          63.4003   84.7044    8.1373 N.2     1  UNL1       -0.0307
     15 C          62.6270   85.9881    8.2000 C.2     1  UNL1        0.2390
     16 C          62.1753   86.1885    9.6163 C.2     1  UNL1        0.0895
     17 C          62.6696   85.0286   10.4289 C.2     1  UNL1        0.0782
     18 C          62.5280   84.6891   11.8831 C.3     1  UNL1        0.0751
     19 N          62.8604   82.7535   15.3317 N.1     1  UNL1       -0.1910
     20 C          63.0019   83.0929   13.8775 C.1     1  UNL1        0.1003
     21 N          64.3219   89.9662   13.5097 N.pl3   1  UNL1       -0.2128
     22 H          65.0788   90.5893   13.6001 H       1  UNL1        0.1738
     23 S          63.9562   89.0602   14.6479 S.O2    1  UNL1        0.0751
     24 O          62.6393   89.7648   14.7857 O.2     1  UNL1       -0.1499
     25 O          65.2732   88.3556   14.5101 O.2     1  UNL1       -0.1499
     26 C          63.5906   88.1541   15.7861 C.ar    1  UNL1        0.1442
     27 C          63.7675   86.6708   15.6505 C.ar    1  UNL1        0.0234
     28 C          63.4019   85.7647   16.7886 C.ar    1  UNL1        0.0221
     29 C          62.8594   86.3420   18.0624 C.ar    1  UNL1        0.0990
     30 N          62.6825   87.8253   18.1980 N.ar    1  UNL1       -0.2409
     31 C          63.0481   88.7314   17.0599 C.ar    1  UNL1        0.1190
@<TRIPOS>BOND
     1    19    20    3
     2    20    10    1
     3    10    11    2
     4    11    12    1
     5    12    13    2
     6    13    14    1
     7    14    15    2
     8    15    16    1
     9    16     8    1
    10     8     9    2
    11     8     1    1
    12     1     2   ar
    13     2     3   ar
    14     3     4   ar
    15     4     5   ar
    16     5    21    1
    17    21    23    1
    18    23    24    2
    19    23    25    2
    20    23    26    1
    21    26    27   ar
    22    27    28   ar
    23    28    29   ar
    24    29    30   ar
    25    30    31   ar
    26     5     6   ar
    27     6     7    1
    28    16    17    2
    29    17    18    1
    30    18    10    1
    31    17    13    1
    32     6     1   ar
    33    31    26   ar
    34    21    22    1
