@<TRIPOS>MOLECULE
*****
 30 34 0 0 0
SMALL
GASTEIGER

@<TRIPOS>ATOM
      1 C          63.6478   86.5640   13.5182 C.3     1  UNL1        0.0892
      2 C          62.7008   86.0486   12.4753 C.3     1  UNL1        0.1584
      3 O          62.2360   84.6232   12.5231 O.3     1  UNL1       -0.3490
      4 C          62.7182   83.7132   13.6137 C.3     1  UNL1        0.1538
      5 C          63.6653   84.2286   14.6566 C.3     1  UNL1        0.0841
      6 N          64.1474   83.3186   15.7471 N.3     1  UNL1       -0.3199
      7 C          64.1300   85.6540   14.6088 C.3     1  UNL1        0.0368
      8 H          63.7341   82.3940   15.6259 H       1  UNL1        0.1189
      9 H          63.8721   83.6980   16.6530 H       1  UNL1        0.1189
     10 C          65.7554   94.7718   12.3406 C.3     1  UNL1        0.0523
     11 C          66.0830   93.7729   13.4106 C.ar    1  UNL1        0.0640
     12 C          66.9505   94.1708   14.5678 C.ar    1  UNL1        0.0355
     13 C          67.2782   93.1720   15.6378 C.ar    1  UNL1        0.1018
     14 N          66.7383   91.7753   15.5507 N.ar    1  UNL1       -0.2252
     15 C          65.8708   91.3774   14.3935 C.ar    1  UNL1        0.1619
     16 C          65.1992   90.0833   14.0409 C.ar    1  UNL1        0.0463
     17 C          64.4566   90.2823   12.7530 C.ar    1  UNL1        0.0954
     18 N          64.6691   91.6994   12.3096 N.ar    1  UNL1       -0.1673
     19 N          65.5432   92.3762   13.3235 N.ar    1  UNL1       -0.2167
     20 C          63.7850   88.9882   12.4004 C.3     1  UNL1        0.1205
     21 N          64.1126   87.9893   13.4704 N.3     1  UNL1       -0.2627
     22 C          64.9867   88.6661   14.4844 C.3     1  UNL1        0.1038
     23 C          62.2534   82.2879   13.6614 C.ar    1  UNL1        0.0355
     24 C          60.8709   81.9657   14.1459 C.ar    1  UNL1        0.0300
     25 C          60.4061   80.5403   14.1936 C.ar    1  UNL1        0.1400
     26 F          59.0236   80.2180   14.6782 F       1  UNL1       -0.2042
     27 C          61.3239   79.4371   13.7567 C.ar    1  UNL1        0.0319
     28 C          62.7064   79.7594   13.2722 C.ar    1  UNL1        0.0317
     29 C          63.1711   81.1847   13.2245 C.ar    1  UNL1        0.1386
     30 F          64.5536   81.5070   12.7400 F       1  UNL1       -0.2044
@<TRIPOS>BOND
     1    10    11    1
     2    11    12   ar
     3    12    13   ar
     4    13    14   ar
     5    14    15   ar
     6    15    16   ar
     7    16    17   ar
     8    17    18   ar
     9    18    19   ar
    10    17    20    1
    11    20    21    1
    12     1    21    1
    13     1     2    1
    14     2     3    1
    15     3     4    1
    16     4    23    1
    17    23    24   ar
    18    24    25   ar
    19    25    26    1
    20    25    27   ar
    21    27    28   ar
    22    28    29   ar
    23    29    30    1
    24     4     5    1
    25     5     6    1
    26     5     7    1
    27    21    22    1
    28    19    11   ar
    29     7     1    1
    30    19    15   ar
    31    29    23   ar
    32    22    16    1
    33     6     8    1
    34     6     9    1
@<TRIPOS>MOLECULE
*****
 30 34 0 0 0
SMALL
GASTEIGER

@<TRIPOS>ATOM
      1 C          63.4890   86.2530   13.6875 C.3     1  UNL1        0.0892
      2 C          62.9023   85.6481   12.4466 C.3     1  UNL1        0.1584
      3 O          62.3978   84.2356   12.4671 O.3     1  UNL1       -0.3490
      4 C          62.4802   83.4280   13.7285 C.3     1  UNL1        0.1538
      5 C          63.0670   84.0329   14.9694 C.3     1  UNL1        0.0841
      6 N          63.1493   83.2253   16.2306 N.3     1  UNL1       -0.3199
      7 C          63.5714   85.4454   14.9489 C.3     1  UNL1        0.0368
      8 H          62.7641   82.2956   16.0647 H       1  UNL1        0.1189
      9 H          62.6155   83.6883   16.9662 H       1  UNL1        0.1189
     10 C          66.6791   94.1426   14.5679 C.3     1  UNL1        0.0523
     11 C          65.9976   93.4332   13.4356 C.ar    1  UNL1        0.0640
     12 C          65.7679   94.1442   12.1349 C.ar    1  UNL1        0.0355
     13 C          65.0864   93.4348   11.0025 C.ar    1  UNL1        0.1018
     14 N          64.6345   92.0144   11.1708 N.ar    1  UNL1       -0.2252
     15 C          64.8642   91.3034   12.4714 C.ar    1  UNL1        0.1619
     16 C          64.5316   89.9139   12.9281 C.ar    1  UNL1        0.0463
     17 C          65.0075   89.7645   14.3427 C.ar    1  UNL1        0.0954
     18 N          65.6343   91.0617   14.7603 N.ar    1  UNL1       -0.1673
     19 N          65.5457   92.0128   13.6038 N.ar    1  UNL1       -0.2167
     20 C          64.6749   88.3749   14.7994 C.3     1  UNL1        0.1205
     21 N          63.9934   87.6655   13.6670 N.3     1  UNL1       -0.2627
     22 C          63.9048   88.6166   12.5105 C.3     1  UNL1        0.1038
     23 C          61.9758   82.0155   13.7489 C.ar    1  UNL1        0.0355
     24 C          60.5689   81.7277   14.1822 C.ar    1  UNL1        0.0300
     25 C          60.0646   80.3152   14.2026 C.ar    1  UNL1        0.1400
     26 F          58.6577   80.0274   14.6360 F       1  UNL1       -0.2042
     27 C          60.9671   79.1905   13.7896 C.ar    1  UNL1        0.0319
     28 C          62.3740   79.4783   13.3563 C.ar    1  UNL1        0.0317
     29 C          62.8783   80.8909   13.3359 C.ar    1  UNL1        0.1386
     30 F          64.2852   81.1787   12.9025 F       1  UNL1       -0.2044
@<TRIPOS>BOND
     1    10    11    1
     2    11    12   ar
     3    12    13   ar
     4    13    14   ar
     5    14    15   ar
     6    15    16   ar
     7    16    17   ar
     8    17    18   ar
     9    18    19   ar
    10    17    20    1
    11    20    21    1
    12     1    21    1
    13     1     2    1
    14     2     3    1
    15     3     4    1
    16     4    23    1
    17    23    24   ar
    18    24    25   ar
    19    25    26    1
    20    25    27   ar
    21    27    28   ar
    22    28    29   ar
    23    29    30    1
    24     4     5    1
    25     5     6    1
    26     5     7    1
    27    21    22    1
    28    19    11   ar
    29     7     1    1
    30    19    15   ar
    31    29    23   ar
    32    22    16    1
    33     6     8    1
    34     6     9    1
@<TRIPOS>MOLECULE
*****
 30 34 0 0 0
SMALL
GASTEIGER

@<TRIPOS>ATOM
      1 C          64.0824   88.7125   13.0513 C.3     1  UNL1        0.0892
      2 C          63.0879   88.1049   12.1070 C.3     1  UNL1        0.1584
      3 O          62.6512   86.6817   12.2911 O.3     1  UNL1       -0.3490
      4 C          63.2091   85.8661   13.4196 C.3     1  UNL1        0.1538
      5 C          64.2036   86.4737   14.3640 C.3     1  UNL1        0.0841
      6 N          64.7614   85.6580   15.4924 N.3     1  UNL1       -0.3199
      7 C          64.6403   87.8968   14.1798 C.3     1  UNL1        0.0368
      8 H          64.3581   84.7215   15.4668 H       1  UNL1        0.1189
      9 H          64.5305   86.1035   16.3805 H       1  UNL1        0.1189
     10 C          66.7253   96.8495   13.0482 C.3     1  UNL1        0.0523
     11 C          66.2716   95.9189   11.9627 C.ar    1  UNL1        0.0640
     12 C          66.2267   96.3916   10.5399 C.ar    1  UNL1        0.0355
     13 C          65.7730   95.4610    9.4544 C.ar    1  UNL1        0.1018
     14 N          65.3643   94.0578    9.7918 N.ar    1  UNL1       -0.2252
     15 C          65.4092   93.5852   11.2147 C.ar    1  UNL1        0.1619
     16 C          65.0692   92.2676   11.8459 C.ar    1  UNL1        0.0463
     17 C          65.3127   92.3838   13.3214 C.ar    1  UNL1        0.0954
     18 N          65.8032   93.7733   13.6021 N.ar    1  UNL1       -0.1673
     19 N          65.8628   94.5157   12.3001 N.ar    1  UNL1       -0.2167
     20 C          64.9727   91.0662   13.9526 C.3     1  UNL1        0.1205
     21 N          64.5190   90.1356   12.8671 N.3     1  UNL1       -0.2627
     22 C          64.5786   90.8781   11.5651 C.3     1  UNL1        0.1038
     23 C          62.7724   84.4430   13.6037 C.ar    1  UNL1        0.0355
     24 C          62.9748   83.4476   12.5000 C.ar    1  UNL1        0.0300
     25 C          62.5381   82.0244   12.6842 C.ar    1  UNL1        0.1400
     26 F          62.7405   81.0290   11.5805 F       1  UNL1       -0.2042
     27 C          61.8990   81.5967   13.9721 C.ar    1  UNL1        0.0319
     28 C          61.6966   82.5921   15.0758 C.ar    1  UNL1        0.0317
     29 C          62.1333   84.0152   14.8916 C.ar    1  UNL1        0.1386
     30 F          61.9309   85.0106   15.9953 F       1  UNL1       -0.2044
@<TRIPOS>BOND
     1    10    11    1
     2    11    12   ar
     3    12    13   ar
     4    13    14   ar
     5    14    15   ar
     6    15    16   ar
     7    16    17   ar
     8    17    18   ar
     9    18    19   ar
    10    17    20    1
    11    20    21    1
    12     1    21    1
    13     1     2    1
    14     2     3    1
    15     3     4    1
    16     4    23    1
    17    23    24   ar
    18    24    25   ar
    19    25    26    1
    20    25    27   ar
    21    27    28   ar
    22    28    29   ar
    23    29    30    1
    24     4     5    1
    25     5     6    1
    26     5     7    1
    27    21    22    1
    28    19    11   ar
    29     7     1    1
    30    19    15   ar
    31    29    23   ar
    32    22    16    1
    33     6     8    1
    34     6     9    1
@<TRIPOS>MOLECULE
*****
 30 34 0 0 0
SMALL
GASTEIGER

@<TRIPOS>ATOM
      1 C          61.0198   87.6043    9.3201 C.3     1  UNL1        0.0892
      2 C          61.2677   89.0829    9.3665 C.3     1  UNL1        0.1584
      3 O          60.6681   89.9770    8.3218 O.3     1  UNL1       -0.3490
      4 C          59.8207   89.3924    7.2308 C.3     1  UNL1        0.1538
      5 C          59.5728   87.9137    7.1846 C.3     1  UNL1        0.0841
      6 N          58.7255   87.3292    6.0936 N.3     1  UNL1       -0.3199
      7 C          60.1724   87.0197    8.2292 C.3     1  UNL1        0.0368
      8 H          58.4033   88.0750    5.4769 H       1  UNL1        0.1189
      9 H          57.9206   86.8564    6.5047 H       1  UNL1        0.1189
     10 C          64.7102   83.3923   15.7883 C.3     1  UNL1        0.0523
     11 C          64.0165   82.9436   14.5363 C.ar    1  UNL1        0.0640
     12 C          63.8750   81.4798   14.2408 C.ar    1  UNL1        0.0355
     13 C          63.1813   81.0311   12.9888 C.ar    1  UNL1        0.1018
     14 N          62.6292   82.0461   12.0324 N.ar    1  UNL1       -0.2252
     15 C          62.7707   83.5098   12.3279 C.ar    1  UNL1        0.1619
     16 C          62.3309   84.7323   11.5780 C.ar    1  UNL1        0.0463
     17 C          62.7528   85.9366   12.3666 C.ar    1  UNL1        0.0954
     18 N          63.4533   85.4584   13.6037 N.ar    1  UNL1       -0.1673
     19 N          63.4644   83.9586   13.5798 N.ar    1  UNL1       -0.2167
     20 C          62.3130   87.1590   11.6168 C.3     1  UNL1        0.1205
     21 N          61.6193   86.7103   10.3648 N.3     1  UNL1       -0.2627
     22 C          61.6303   85.2104   10.3408 C.3     1  UNL1        0.1038
     23 C          59.2213   90.2865    6.1863 C.ar    1  UNL1        0.0355
     24 C          57.7317   90.4355    6.0917 C.ar    1  UNL1        0.0300
     25 C          57.1323   91.3296    5.0470 C.ar    1  UNL1        0.1400
     26 F          55.6427   91.4786    4.9524 F       1  UNL1       -0.2042
     27 C          58.0224   92.0747    4.0970 C.ar    1  UNL1        0.0319
     28 C          59.5120   91.9257    4.1916 C.ar    1  UNL1        0.0317
     29 C          60.1114   91.0316    5.2362 C.ar    1  UNL1        0.1386
     30 F          61.6010   90.8825    5.3309 F       1  UNL1       -0.2044
@<TRIPOS>BOND
     1    10    11    1
     2    11    12   ar
     3    12    13   ar
     4    13    14   ar
     5    14    15   ar
     6    15    16   ar
     7    16    17   ar
     8    17    18   ar
     9    18    19   ar
    10    17    20    1
    11    20    21    1
    12     1    21    1
    13     1     2    1
    14     2     3    1
    15     3     4    1
    16     4    23    1
    17    23    24   ar
    18    24    25   ar
    19    25    26    1
    20    25    27   ar
    21    27    28   ar
    22    28    29   ar
    23    29    30    1
    24     4     5    1
    25     5     6    1
    26     5     7    1
    27    21    22    1
    28    19    11   ar
    29     7     1    1
    30    19    15   ar
    31    29    23   ar
    32    22    16    1
    33     6     8    1
    34     6     9    1
@<TRIPOS>MOLECULE
*****
 30 34 0 0 0
SMALL
GASTEIGER

@<TRIPOS>ATOM
      1 C          61.0565   86.7860    9.6996 C.3     1  UNL1        0.0892
      2 C          60.7431   86.8964   11.1623 C.3     1  UNL1        0.1584
      3 O          61.4047   85.9739   12.1429 O.3     1  UNL1       -0.3490
      4 C          62.3798   84.9411   11.6606 C.3     1  UNL1        0.1538
      5 C          62.6932   84.8307   10.1978 C.3     1  UNL1        0.0841
      6 N          63.6681   83.7979    9.7157 N.3     1  UNL1       -0.3199
      7 C          62.0315   85.7531    9.2174 C.3     1  UNL1        0.0368
      8 H          64.0180   83.2632   10.5108 H       1  UNL1        0.1189
      9 H          64.4477   84.2590    9.2466 H       1  UNL1        0.1189
     10 C          56.3638   91.6636    4.4666 C.3     1  UNL1        0.0523
     11 C          57.8413   91.5158    4.6795 C.ar    1  UNL1        0.0640
     12 C          58.8014   92.3364    3.8703 C.ar    1  UNL1        0.0355
     13 C          60.2788   92.1887    4.0832 C.ar    1  UNL1        0.1018
     14 N          60.7962   91.2203    5.1052 N.ar    1  UNL1       -0.2252
     15 C          59.8361   90.3997    5.9144 C.ar    1  UNL1        0.1619
     16 C          60.0495   89.3717    6.9857 C.ar    1  UNL1        0.0463
     17 C          58.7040   88.8842    7.4350 C.ar    1  UNL1        0.0954
     18 N          57.6590   89.6108    6.6413 N.ar    1  UNL1       -0.1673
     19 N          58.3586   90.5475    5.7015 N.ar    1  UNL1       -0.2167
     20 C          58.9174   87.8562    8.5063 C.3     1  UNL1        0.1205
     21 N          60.3948   87.7084    8.7192 N.3     1  UNL1       -0.2627
     22 C          61.0946   88.6451    7.7794 C.3     1  UNL1        0.1038
     23 C          63.0413   84.0187   12.6411 C.ar    1  UNL1        0.0355
     24 C          62.7904   82.5416   12.5683 C.ar    1  UNL1        0.0300
     25 C          63.4521   81.6193   13.5488 C.ar    1  UNL1        0.1400
     26 F          63.2012   80.1422   13.4760 F       1  UNL1       -0.2042
     27 C          64.3646   82.1740   14.6022 C.ar    1  UNL1        0.0319
     28 C          64.6155   83.6510   14.6751 C.ar    1  UNL1        0.0317
     29 C          63.9539   84.5734   13.6945 C.ar    1  UNL1        0.1386
     30 F          64.2047   86.0504   13.7674 F       1  UNL1       -0.2044
@<TRIPOS>BOND
     1    10    11    1
     2    11    12   ar
     3    12    13   ar
     4    13    14   ar
     5    14    15   ar
     6    15    16   ar
     7    16    17   ar
     8    17    18   ar
     9    18    19   ar
    10    17    20    1
    11    20    21    1
    12     1    21    1
    13     1     2    1
    14     2     3    1
    15     3     4    1
    16     4    23    1
    17    23    24   ar
    18    24    25   ar
    19    25    26    1
    20    25    27   ar
    21    27    28   ar
    22    28    29   ar
    23    29    30    1
    24     4     5    1
    25     5     6    1
    26     5     7    1
    27    21    22    1
    28    19    11   ar
    29     7     1    1
    30    19    15   ar
    31    29    23   ar
    32    22    16    1
    33     6     8    1
    34     6     9    1
@<TRIPOS>MOLECULE
*****
 30 34 0 0 0
SMALL
GASTEIGER

@<TRIPOS>ATOM
      1 C          60.8493   87.0209    9.0981 C.3     1  UNL1        0.0892
      2 C          60.5040   86.5918    7.7029 C.3     1  UNL1        0.1584
      3 O          59.9107   87.5774    6.7402 O.3     1  UNL1       -0.3490
      4 C          59.6629   88.9922    7.1727 C.3     1  UNL1        0.1538
      5 C          60.0083   89.4213    8.5680 C.3     1  UNL1        0.0841
      6 N          59.7604   90.8360    9.0004 N.3     1  UNL1       -0.3199
      7 C          60.6015   88.4357    9.5306 C.3     1  UNL1        0.0368
      8 H          59.3569   91.3626    8.2257 H       1  UNL1        0.1189
      9 H          60.6422   91.2653    9.2805 H       1  UNL1        0.1189
     10 C          64.2544   80.7197   13.7774 C.3     1  UNL1        0.0523
     11 C          63.8511   82.1291   14.0951 C.ar    1  UNL1        0.0640
     12 C          64.0307   82.6656   15.4843 C.ar    1  UNL1        0.0355
     13 C          63.6274   84.0750   15.8020 C.ar    1  UNL1        0.1018
     14 N          63.0445   84.9479   14.7305 N.ar    1  UNL1       -0.2252
     15 C          62.8649   84.4114   13.3413 C.ar    1  UNL1        0.1619
     16 C          62.3216   85.0317   12.0882 C.ar    1  UNL1        0.0463
     17 C          62.3891   84.0057   10.9961 C.ar    1  UNL1        0.0954
     18 N          62.9742   82.7513   11.5742 N.ar    1  UNL1       -0.1673
     19 N          63.2682   83.0020   13.0236 N.ar    1  UNL1       -0.2167
     20 C          61.8459   84.6259    9.7431 C.3     1  UNL1        0.1205
     21 N          61.4425   86.0353   10.0607 N.3     1  UNL1       -0.2627
     22 C          61.7366   86.2862   11.5101 C.3     1  UNL1        0.1038
     23 C          59.0697   89.9777    6.2101 C.ar    1  UNL1        0.0355
     24 C          57.5803   90.1243    6.1093 C.ar    1  UNL1        0.0300
     25 C          56.9872   91.1099    5.1466 C.ar    1  UNL1        0.1400
     26 F          55.4978   91.2565    5.0458 F       1  UNL1       -0.2042
     27 C          57.8835   91.9488    4.2847 C.ar    1  UNL1        0.0319
     28 C          59.3729   91.8022    4.3855 C.ar    1  UNL1        0.0317
     29 C          59.9660   90.8167    5.3482 C.ar    1  UNL1        0.1386
     30 F          61.4554   90.6700    5.4490 F       1  UNL1       -0.2044
@<TRIPOS>BOND
     1    10    11    1
     2    11    12   ar
     3    12    13   ar
     4    13    14   ar
     5    14    15   ar
     6    15    16   ar
     7    16    17   ar
     8    17    18   ar
     9    18    19   ar
    10    17    20    1
    11    20    21    1
    12     1    21    1
    13     1     2    1
    14     2     3    1
    15     3     4    1
    16     4    23    1
    17    23    24   ar
    18    24    25   ar
    19    25    26    1
    20    25    27   ar
    21    27    28   ar
    22    28    29   ar
    23    29    30    1
    24     4     5    1
    25     5     6    1
    26     5     7    1
    27    21    22    1
    28    19    11   ar
    29     7     1    1
    30    19    15   ar
    31    29    23   ar
    32    22    16    1
    33     6     8    1
    34     6     9    1
@<TRIPOS>MOLECULE
*****
 30 34 0 0 0
SMALL
GASTEIGER

@<TRIPOS>ATOM
      1 C          63.9401   86.2309   13.4213 C.3     1  UNL1        0.0892
      2 C          64.6595   86.3867   14.7283 C.3     1  UNL1        0.1584
      3 O          64.9009   87.7553   15.2930 O.3     1  UNL1       -0.3490
      4 C          64.4230   88.9680   14.5507 C.3     1  UNL1        0.1538
      5 C          63.7036   88.8121   13.2436 C.3     1  UNL1        0.0841
      6 N          63.2257   90.0247   12.5014 N.3     1  UNL1       -0.3199
      7 C          63.4622   87.4435   12.6790 C.3     1  UNL1        0.0368
      8 H          63.4730   90.8638   13.0259 H       1  UNL1        0.1189
      9 H          62.2127   89.9787   12.3914 H       1  UNL1        0.1189
     10 C          62.7568   78.8541    9.2525 C.3     1  UNL1        0.0523
     11 C          62.6886   79.2345   10.7018 C.ar    1  UNL1        0.0640
     12 C          62.3531   78.1992   11.7340 C.ar    1  UNL1        0.0355
     13 C          62.2848   78.5796   13.1834 C.ar    1  UNL1        0.1018
     14 N          62.5521   79.9954   13.6005 N.ar    1  UNL1       -0.2252
     15 C          62.8875   81.0308   12.5683 C.ar    1  UNL1        0.1619
     16 C          63.1974   82.4943   12.6785 C.ar    1  UNL1        0.0463
     17 C          63.4571   83.0184   11.2972 C.ar    1  UNL1        0.0954
     18 N          63.3078   81.8787   10.3334 N.ar    1  UNL1       -0.1673
     19 N          62.9558   80.6503   11.1190 N.ar    1  UNL1       -0.2167
     20 C          63.7670   84.4819   11.4073 C.3     1  UNL1        0.1205
     21 N          63.6987   84.8623   12.8567 N.3     1  UNL1       -0.2627
     22 C          63.3467   83.6340   13.6423 C.3     1  UNL1        0.1038
     23 C          64.6644   90.3364   15.1154 C.ar    1  UNL1        0.0355
     24 C          65.7168   91.2207   14.5149 C.ar    1  UNL1        0.0300
     25 C          65.9581   92.5892   15.0796 C.ar    1  UNL1        0.1400
     26 F          67.0105   93.4734   14.4791 F       1  UNL1       -0.2042
     27 C          65.1471   93.0734   16.2449 C.ar    1  UNL1        0.0319
     28 C          64.0947   92.1892   16.8454 C.ar    1  UNL1        0.0317
     29 C          63.8534   90.8207   16.2806 C.ar    1  UNL1        0.1386
     30 F          62.8010   89.9365   16.8811 F       1  UNL1       -0.2044
@<TRIPOS>BOND
     1    10    11    1
     2    11    12   ar
     3    12    13   ar
     4    13    14   ar
     5    14    15   ar
     6    15    16   ar
     7    16    17   ar
     8    17    18   ar
     9    18    19   ar
    10    17    20    1
    11    20    21    1
    12     1    21    1
    13     1     2    1
    14     2     3    1
    15     3     4    1
    16     4    23    1
    17    23    24   ar
    18    24    25   ar
    19    25    26    1
    20    25    27   ar
    21    27    28   ar
    22    28    29   ar
    23    29    30    1
    24     4     5    1
    25     5     6    1
    26     5     7    1
    27    21    22    1
    28    19    11   ar
    29     7     1    1
    30    19    15   ar
    31    29    23   ar
    32    22    16    1
    33     6     8    1
    34     6     9    1
@<TRIPOS>MOLECULE
*****
 30 34 0 0 0
SMALL
GASTEIGER

@<TRIPOS>ATOM
      1 C          61.0708   87.6095    9.3155 C.3     1  UNL1        0.0892
      2 C          61.2615   89.0939    9.4155 C.3     1  UNL1        0.1584
      3 O          60.6890   89.9963    8.3628 O.3     1  UNL1       -0.3490
      4 C          59.9258   89.4142    7.2101 C.3     1  UNL1        0.1538
      5 C          59.7351   87.9296    7.1101 C.3     1  UNL1        0.0841
      6 N          58.9720   87.3476    5.9575 N.3     1  UNL1       -0.3199
      7 C          60.3076   87.0273    8.1628 C.3     1  UNL1        0.0368
      8 H          58.6577   88.0991    5.3436 H       1  UNL1        0.1189
      9 H          58.1632   86.8352    6.3093 H       1  UNL1        0.1189
     10 C          64.6156   83.3466   15.8315 C.3     1  UNL1        0.0523
     11 C          63.9294   82.9075   14.5720 C.ar    1  UNL1        0.0640
     12 C          63.7673   81.4459   14.2766 C.ar    1  UNL1        0.0355
     13 C          63.0811   81.0068   13.0171 C.ar    1  UNL1        0.1018
     14 N          62.5569   82.0294   12.0530 N.ar    1  UNL1       -0.2252
     15 C          62.7190   83.4911   12.3484 C.ar    1  UNL1        0.1619
     16 C          62.3081   84.7195   11.5920 C.ar    1  UNL1        0.0463
     17 C          62.7404   85.9178   12.3840 C.ar    1  UNL1        0.0954
     18 N          63.4185   85.4299   13.6299 N.ar    1  UNL1       -0.1673
     19 N          63.4052   83.9301   13.6079 N.ar    1  UNL1       -0.2167
     20 C          62.3295   87.1463   11.6276 C.3     1  UNL1        0.1205
     21 N          61.6433   86.7072   10.3682 N.3     1  UNL1       -0.2627
     22 C          61.6300   85.2074   10.3461 C.3     1  UNL1        0.1038
     23 C          59.3534   90.3165    6.1575 C.ar    1  UNL1        0.0355
     24 C          60.2673   91.1192    5.2799 C.ar    1  UNL1        0.0300
     25 C          59.6948   92.0216    4.2273 C.ar    1  UNL1        0.1400
     26 F          60.6087   92.8243    3.3496 F       1  UNL1       -0.2042
     27 C          58.2083   92.1211    4.0523 C.ar    1  UNL1        0.0319
     28 C          57.2944   91.3183    4.9300 C.ar    1  UNL1        0.0317
     29 C          57.8669   90.4160    5.9826 C.ar    1  UNL1        0.1386
     30 F          56.9530   89.6132    6.8602 F       1  UNL1       -0.2044
@<TRIPOS>BOND
     1    10    11    1
     2    11    12   ar
     3    12    13   ar
     4    13    14   ar
     5    14    15   ar
     6    15    16   ar
     7    16    17   ar
     8    17    18   ar
     9    18    19   ar
    10    17    20    1
    11    20    21    1
    12     1    21    1
    13     1     2    1
    14     2     3    1
    15     3     4    1
    16     4    23    1
    17    23    24   ar
    18    24    25   ar
    19    25    26    1
    20    25    27   ar
    21    27    28   ar
    22    28    29   ar
    23    29    30    1
    24     4     5    1
    25     5     6    1
    26     5     7    1
    27    21    22    1
    28    19    11   ar
    29     7     1    1
    30    19    15   ar
    31    29    23   ar
    32    22    16    1
    33     6     8    1
    34     6     9    1
@<TRIPOS>MOLECULE
*****
 30 34 0 0 0
SMALL
GASTEIGER

@<TRIPOS>ATOM
      1 C          61.0655   86.7895    9.6422 C.3     1  UNL1        0.0892
      2 C          60.7336   86.8672   11.1030 C.3     1  UNL1        0.1584
      3 O          61.4059   85.9433   12.0750 O.3     1  UNL1       -0.3490
      4 C          62.4100   84.9419   11.5861 C.3     1  UNL1        0.1538
      5 C          62.7418   84.8643   10.1253 C.3     1  UNL1        0.0841
      6 N          63.7458   83.8628    9.6365 N.3     1  UNL1       -0.3199
      7 C          62.0695   85.7881    9.1534 C.3     1  UNL1        0.0368
      8 H          64.0994   83.3227   10.4262 H       1  UNL1        0.1189
      9 H          64.5194   84.3500    9.1842 H       1  UNL1        0.1189
     10 C          56.3164   91.6671    4.4603 C.3     1  UNL1        0.0523
     11 C          57.7958   91.5275    4.6651 C.ar    1  UNL1        0.0640
     12 C          58.7467   92.3588    3.8560 C.ar    1  UNL1        0.0355
     13 C          60.2261   92.2192    4.0608 C.ar    1  UNL1        0.1018
     14 N          60.7546   91.2483    5.0747 N.ar    1  UNL1       -0.2252
     15 C          59.8037   90.4171    5.8838 C.ar    1  UNL1        0.1619
     16 C          60.0288   89.3843    6.9482 C.ar    1  UNL1        0.0463
     17 C          58.6886   88.8857    7.4012 C.ar    1  UNL1        0.0954
     18 N          57.6352   89.6102    6.6168 N.ar    1  UNL1       -0.1673
     19 N          58.3243   90.5566    5.6790 N.ar    1  UNL1       -0.2167
     20 C          58.9138   87.8529    8.4655 C.3     1  UNL1        0.1205
     21 N          60.3932   87.7133    8.6703 N.3     1  UNL1       -0.2627
     22 C          61.0824   88.6598    7.7326 C.3     1  UNL1        0.1038
     23 C          63.0822   84.0181   12.5580 C.ar    1  UNL1        0.0355
     24 C          63.9551   84.5765   13.6425 C.ar    1  UNL1        0.0300
     25 C          64.6273   83.6527   14.6145 C.ar    1  UNL1        0.1400
     26 F          65.5002   84.2111   15.6989 F       1  UNL1       -0.2042
     27 C          64.4266   82.1704   14.5019 C.ar    1  UNL1        0.0319
     28 C          63.5536   81.6120   13.4174 C.ar    1  UNL1        0.0317
     29 C          62.8814   82.5359   12.4455 C.ar    1  UNL1        0.1386
     30 F          62.0085   81.9774   11.3610 F       1  UNL1       -0.2044
@<TRIPOS>BOND
     1    10    11    1
     2    11    12   ar
     3    12    13   ar
     4    13    14   ar
     5    14    15   ar
     6    15    16   ar
     7    16    17   ar
     8    17    18   ar
     9    18    19   ar
    10    17    20    1
    11    20    21    1
    12     1    21    1
    13     1     2    1
    14     2     3    1
    15     3     4    1
    16     4    23    1
    17    23    24   ar
    18    24    25   ar
    19    25    26    1
    20    25    27   ar
    21    27    28   ar
    22    28    29   ar
    23    29    30    1
    24     4     5    1
    25     5     6    1
    26     5     7    1
    27    21    22    1
    28    19    11   ar
    29     7     1    1
    30    19    15   ar
    31    29    23   ar
    32    22    16    1
    33     6     8    1
    34     6     9    1
