@<TRIPOS>MOLECULE
*****
 33 35 0 0 0
SMALL
GASTEIGER

@<TRIPOS>ATOM
      1 N          64.2546   88.5989   14.1491 N.am    1  UNL1       -0.2837
      2 C          63.7540   89.2437   15.4075 C.2     1  UNL1        0.2297
      3 O          62.9551   88.4440   16.3934 O.2     1  UNL1       -0.2744
      4 H          64.7790   89.1239   13.5020 H       1  UNL1        0.1549
      5 C          63.3600   84.2652   13.3317 C.ar    1  UNL1        0.0002
      6 C          64.1752   84.6495   14.5307 C.ar    1  UNL1        0.0013
      7 C          64.4734   86.0941   14.8032 C.ar    1  UNL1        0.0147
      8 C          63.9564   87.1544   13.8766 C.ar    1  UNL1        0.0503
      9 C          63.1412   86.7701   12.6776 C.ar    1  UNL1        0.0147
     10 C          62.8430   85.3254   12.4051 C.ar    1  UNL1        0.0013
     11 C          63.1112   80.2684   10.0205 C.3     1  UNL1        0.0521
     12 C          62.9374   80.8222   11.4036 C.ar    1  UNL1        0.0594
     13 C          63.2355   82.2668   11.6761 C.ar    1  UNL1        0.0147
     14 C          63.0617   82.8205   13.0593 C.ar    1  UNL1        0.0027
     15 C          62.5898   81.9298   14.1700 C.ar    1  UNL1        0.0207
     16 C          62.2916   80.4852   13.8975 C.ar    1  UNL1        0.0984
     17 N          62.4654   79.9314   12.5143 N.ar    1  UNL1       -0.2481
     18 C          64.0522   90.6883   15.6799 C.3     1  UNL1        0.0990
     19 C          63.3062   91.4178   16.7575 C.3     1  UNL1        0.0143
     20 C          65.0965   91.4034   14.8748 C.ar    1  UNL1       -0.0140
     21 C          66.3409   91.9100   15.5415 C.ar    1  UNL1        0.0000
     22 C          67.3852   92.6250   14.7364 C.ar    1  UNL1        0.0711
     23 C          67.1849   92.8334   13.2645 C.ar    1  UNL1        0.0077
     24 C          65.9404   92.3268   12.5977 C.ar    1  UNL1        0.0711
     25 C          64.8962   91.6118   13.4029 C.ar    1  UNL1        0.0000
     26 C          68.6297   93.1317   15.4031 C.3     1  UNL1        0.4186
     27 F          69.8742   93.6383   16.0698 F       1  UNL1       -0.1659
     28 F          69.4659   92.4426   14.3659 F       1  UNL1       -0.1659
     29 F          67.7935   93.8208   16.4403 F       1  UNL1       -0.1659
     30 C          65.7402   92.5352   11.1258 C.3     1  UNL1        0.4186
     31 F          65.5399   92.7436    9.6540 F       1  UNL1       -0.1659
     32 F          64.6228   91.5345   11.1362 F       1  UNL1       -0.1659
     33 F          66.8575   93.5359   11.1155 F       1  UNL1       -0.1659
@<TRIPOS>BOND
     1    11    12    1
     2    12    13   ar
     3    13    14   ar
     4    14     5    1
     5     5     6   ar
     6     6     7   ar
     7     7     8   ar
     8     8     1    1
     9     1     2   am
    10     2     3    2
    11     2    18    1
    12    18    19    1
    13    18    20    1
    14    20    21   ar
    15    21    22   ar
    16    22    26    1
    17    26    27    1
    18    26    28    1
    19    26    29    1
    20    22    23   ar
    21    23    24   ar
    22    24    30    1
    23    30    31    1
    24    30    32    1
    25    30    33    1
    26    24    25   ar
    27     8     9   ar
    28     9    10   ar
    29    14    15   ar
    30    15    16   ar
    31    16    17   ar
    32    17    12   ar
    33    10     5   ar
    34    25    20   ar
    35     1     4    1
@<TRIPOS>MOLECULE
*****
 33 35 0 0 0
SMALL
GASTEIGER

@<TRIPOS>ATOM
      1 N          64.2741   88.6104   14.1218 N.am    1  UNL1       -0.2837
      2 C          63.7804   89.2567   15.3821 C.2     1  UNL1        0.2297
      3 O          62.9874   88.4579   16.3736 O.2     1  UNL1       -0.2744
      4 H          64.7946   89.1346   13.4710 H       1  UNL1        0.1549
      5 C          63.3764   84.2753   13.3151 C.ar    1  UNL1        0.0002
      6 C          62.8586   85.3338   12.3869 C.ar    1  UNL1        0.0013
      7 C          63.1578   86.7788   12.6557 C.ar    1  UNL1        0.0147
      8 C          63.9749   87.1654   13.8529 C.ar    1  UNL1        0.0503
      9 C          64.4927   86.1069   14.7811 C.ar    1  UNL1        0.0147
     10 C          64.1934   84.6618   14.5121 C.ar    1  UNL1        0.0013
     11 C          63.1206   80.2717   10.0126 C.3     1  UNL1        0.0521
     12 C          62.9492   80.8285   11.3949 C.ar    1  UNL1        0.0594
     13 C          63.2485   82.2734   11.6639 C.ar    1  UNL1        0.0147
     14 C          63.0771   82.8302   13.0461 C.ar    1  UNL1        0.0027
     15 C          62.6064   81.9420   14.1594 C.ar    1  UNL1        0.0207
     16 C          62.3071   80.4970   13.8904 C.ar    1  UNL1        0.0984
     17 N          62.4785   79.9402   12.5082 N.ar    1  UNL1       -0.2481
     18 C          64.0796   90.7017   15.6510 C.3     1  UNL1        0.0990
     19 C          63.3343   91.4343   16.7269 C.3     1  UNL1        0.0143
     20 C          65.1243   91.4141   14.8439 C.ar    1  UNL1       -0.0140
     21 C          64.9210   91.6247   13.3728 C.ar    1  UNL1        0.0000
     22 C          65.9656   92.3371   12.5658 C.ar    1  UNL1        0.0711
     23 C          67.2135   92.8388   13.2300 C.ar    1  UNL1        0.0077
     24 C          67.4168   92.6281   14.7011 C.ar    1  UNL1        0.0711
     25 C          66.3722   91.9157   15.5081 C.ar    1  UNL1        0.0000
     26 C          65.7623   92.5478   11.0946 C.3     1  UNL1        0.4186
     27 F          65.5591   92.7585    9.6235 F       1  UNL1       -0.1659
     28 F          64.5995   91.6007   11.1197 F       1  UNL1       -0.1659
     29 F          66.9252   93.4949   11.0696 F       1  UNL1       -0.1659
     30 C          68.6647   93.1298   15.3652 C.3     1  UNL1        0.4186
     31 F          69.9126   93.6315   16.0293 F       1  UNL1       -0.1659
     32 F          67.8324   93.8762   16.3653 F       1  UNL1       -0.1659
     33 F          69.4970   92.3834   14.3651 F       1  UNL1       -0.1659
@<TRIPOS>BOND
     1    11    12    1
     2    12    13   ar
     3    13    14   ar
     4    14     5    1
     5     5     6   ar
     6     6     7   ar
     7     7     8   ar
     8     8     1    1
     9     1     2   am
    10     2     3    2
    11     2    18    1
    12    18    19    1
    13    18    20    1
    14    20    21   ar
    15    21    22   ar
    16    22    26    1
    17    26    27    1
    18    26    28    1
    19    26    29    1
    20    22    23   ar
    21    23    24   ar
    22    24    30    1
    23    30    31    1
    24    30    32    1
    25    30    33    1
    26    24    25   ar
    27     8     9   ar
    28     9    10   ar
    29    14    15   ar
    30    15    16   ar
    31    16    17   ar
    32    17    12   ar
    33    10     5   ar
    34    25    20   ar
    35     1     4    1
@<TRIPOS>MOLECULE
*****
 33 35 0 0 0
SMALL
GASTEIGER

@<TRIPOS>ATOM
      1 N          62.5536   88.1475   10.8470 N.am    1  UNL1       -0.2837
      2 C          63.0868   89.1247   11.8523 C.2     1  UNL1        0.2297
      3 O          63.6353   88.6326   13.1588 O.2     1  UNL1       -0.2744
      4 H          62.1935   88.4705    9.9895 H       1  UNL1        0.1549
      5 C          62.5997   83.7393   11.7505 C.ar    1  UNL1        0.0002
      6 C          62.7733   84.7341   12.8597 C.ar    1  UNL1        0.0013
      7 C          62.7579   86.2035   12.5585 C.ar    1  UNL1        0.0147
      8 C          62.5690   86.6781   11.1481 C.ar    1  UNL1        0.0503
      9 C          62.3954   85.6833   10.0390 C.ar    1  UNL1        0.0147
     10 C          62.4108   84.2139   10.3402 C.ar    1  UNL1        0.0013
     11 C          62.9317   78.8156   10.1236 C.3     1  UNL1        0.0521
     12 C          62.7811   79.8081   11.2382 C.ar    1  UNL1        0.0594
     13 C          62.7657   81.2774   10.9371 C.ar    1  UNL1        0.0147
     14 C          62.6151   82.2699   12.0517 C.ar    1  UNL1        0.0027
     15 C          62.4799   81.7931   13.4674 C.ar    1  UNL1        0.0207
     16 C          62.4953   80.3237   13.7685 C.ar    1  UNL1        0.0984
     17 N          62.6459   79.3312   12.6539 N.ar    1  UNL1       -0.2481
     18 C          63.0714   90.5941   11.5512 C.3     1  UNL1        0.0990
     19 C          61.8783   91.2102   10.8827 C.3     1  UNL1        0.0143
     20 C          64.2491   91.4474   11.9186 C.ar    1  UNL1       -0.0140
     21 C          65.0110   92.1742   10.8504 C.ar    1  UNL1        0.0000
     22 C          66.1887   93.0275   11.2178 C.ar    1  UNL1        0.0711
     23 C          66.6044   93.1538   12.6535 C.ar    1  UNL1        0.0077
     24 C          65.8426   92.4270   13.7217 C.ar    1  UNL1        0.0711
     25 C          64.6649   91.5737   13.3543 C.ar    1  UNL1        0.0000
     26 C          66.9506   93.7544   10.1495 C.3     1  UNL1        0.4186
     27 F          67.7125   94.4812    9.0813 F       1  UNL1       -0.1659
     28 F          67.5159   92.4517    9.6664 F       1  UNL1       -0.1659
     29 F          66.3853   95.0570   10.6327 F       1  UNL1       -0.1659
     30 C          66.2584   92.5533   15.1574 C.3     1  UNL1        0.4186
     31 F          66.6741   92.6797   16.5931 F       1  UNL1       -0.1659
     32 F          67.2806   93.5808   14.7709 F       1  UNL1       -0.1659
     33 F          65.2362   91.5259   15.5439 F       1  UNL1       -0.1659
@<TRIPOS>BOND
     1    11    12    1
     2    12    13   ar
     3    13    14   ar
     4    14     5    1
     5     5     6   ar
     6     6     7   ar
     7     7     8   ar
     8     8     1    1
     9     1     2   am
    10     2     3    2
    11     2    18    1
    12    18    19    1
    13    18    20    1
    14    20    21   ar
    15    21    22   ar
    16    22    26    1
    17    26    27    1
    18    26    28    1
    19    26    29    1
    20    22    23   ar
    21    23    24   ar
    22    24    30    1
    23    30    31    1
    24    30    32    1
    25    30    33    1
    26    24    25   ar
    27     8     9   ar
    28     9    10   ar
    29    14    15   ar
    30    15    16   ar
    31    16    17   ar
    32    17    12   ar
    33    10     5   ar
    34    25    20   ar
    35     1     4    1
@<TRIPOS>MOLECULE
*****
 33 35 0 0 0
SMALL
GASTEIGER

@<TRIPOS>ATOM
      1 N          62.8763   88.2558   12.3647 N.am    1  UNL1       -0.2837
      2 C          62.6521   89.0401   11.1059 C.2     1  UNL1        0.2297
      3 O          62.3982   88.3251    9.8120 O.2     1  UNL1       -0.2744
      4 H          63.0429   88.7251   13.2140 H       1  UNL1        0.1549
      5 C          62.7873   83.7579   12.2594 C.ar    1  UNL1        0.0002
      6 C          62.0961   84.5471   11.1872 C.ar    1  UNL1        0.0013
      7 C          62.1257   86.0463   11.2224 C.ar    1  UNL1        0.0147
      8 C          62.8466   86.7566   12.3296 C.ar    1  UNL1        0.0503
      9 C          63.5379   85.9674   13.4018 C.ar    1  UNL1        0.0147
     10 C          63.5082   84.4681   13.3666 C.ar    1  UNL1        0.0013
     11 C          63.0309   79.3139    9.5777 C.3     1  UNL1        0.0521
     12 C          62.8794   80.0366   10.8834 C.ar    1  UNL1        0.0594
     13 C          62.9091   81.5359   10.9186 C.ar    1  UNL1        0.0147
     14 C          62.7577   82.2586   12.2242 C.ar    1  UNL1        0.0027
     15 C          62.5766   81.4820   13.4947 C.ar    1  UNL1        0.0207
     16 C          62.5469   79.9828   13.4595 C.ar    1  UNL1        0.0984
     17 N          62.6983   79.2601   12.1538 N.ar    1  UNL1       -0.2481
     18 C          62.6817   90.5394   11.1410 C.3     1  UNL1        0.0990
     19 C          61.4571   91.3226   10.7711 C.3     1  UNL1        0.0143
     20 C          63.9360   91.2555   11.5461 C.ar    1  UNL1       -0.0140
     21 C          64.3176   91.3389   12.9943 C.ar    1  UNL1        0.0000
     22 C          65.5719   92.0549   13.3993 C.ar    1  UNL1        0.0711
     23 C          66.4445   92.6876   12.3561 C.ar    1  UNL1        0.0077
     24 C          66.0629   92.6042   10.9079 C.ar    1  UNL1        0.0711
     25 C          64.8086   91.8881   10.5029 C.ar    1  UNL1        0.0000
     26 C          65.9535   92.1384   14.8476 C.3     1  UNL1        0.4186
     27 F          66.3352   92.2217   16.2958 F       1  UNL1       -0.1659
     28 F          65.1084   90.9341   15.1397 F       1  UNL1       -0.1659
     29 F          66.7987   93.3426   14.5556 F       1  UNL1       -0.1659
     30 C          66.9355   93.2369    9.8647 C.3     1  UNL1        0.4186
     31 F          67.8081   93.8696    8.8215 F       1  UNL1       -0.1659
     32 F          67.7433   91.9762    9.7759 F       1  UNL1       -0.1659
     33 F          66.1276   94.4976    9.9536 F       1  UNL1       -0.1659
@<TRIPOS>BOND
     1    11    12    1
     2    12    13   ar
     3    13    14   ar
     4    14     5    1
     5     5     6   ar
     6     6     7   ar
     7     7     8   ar
     8     8     1    1
     9     1     2   am
    10     2     3    2
    11     2    18    1
    12    18    19    1
    13    18    20    1
    14    20    21   ar
    15    21    22   ar
    16    22    26    1
    17    26    27    1
    18    26    28    1
    19    26    29    1
    20    22    23   ar
    21    23    24   ar
    22    24    30    1
    23    30    31    1
    24    30    32    1
    25    30    33    1
    26    24    25   ar
    27     8     9   ar
    28     9    10   ar
    29    14    15   ar
    30    15    16   ar
    31    16    17   ar
    32    17    12   ar
    33    10     5   ar
    34    25    20   ar
    35     1     4    1
@<TRIPOS>MOLECULE
*****
 33 35 0 0 0
SMALL
GASTEIGER

@<TRIPOS>ATOM
      1 N          61.6737   85.4389    9.9837 N.am    1  UNL1       -0.2837
      2 C          62.9313   84.7700    9.5136 C.2     1  UNL1        0.2297
      3 O          63.5202   85.1310    8.1822 O.2     1  UNL1       -0.2744
      4 H          61.2872   85.2020   10.8576 H       1  UNL1        0.1549
      5 C          59.6675   88.5287    7.3995 C.ar    1  UNL1        0.0002
      6 C          59.5137   87.0709    7.0818 C.ar    1  UNL1        0.0013
      7 C          60.1825   86.0409    7.9432 C.ar    1  UNL1        0.0147
      8 C          61.0050   86.4689    9.1224 C.ar    1  UNL1        0.0503
      9 C          61.1587   87.9267    9.4401 C.ar    1  UNL1        0.0147
     10 C          60.4899   88.9567    8.5787 C.ar    1  UNL1        0.0013
     11 C          59.9866   92.5302    4.1000 C.3     1  UNL1        0.0521
     12 C          59.1583   91.5594    4.8884 C.ar    1  UNL1        0.0594
     13 C          59.8270   90.5295    5.7498 C.ar    1  UNL1        0.0147
     14 C          58.9987   89.5587    6.5381 C.ar    1  UNL1        0.0027
     15 C          57.5017   89.6178    6.4650 C.ar    1  UNL1        0.0207
     16 C          56.8330   90.6477    5.6036 C.ar    1  UNL1        0.0984
     17 N          57.6613   91.6185    4.8153 N.ar    1  UNL1       -0.2481
     18 C          63.6000   83.7401   10.3750 C.3     1  UNL1        0.0990
     19 C          64.7445   82.9368    9.8320 C.3     1  UNL1        0.0143
     20 C          63.1243   83.5134   11.7794 C.ar    1  UNL1       -0.0140
     21 C          63.3516   84.5628   12.8268 C.ar    1  UNL1        0.0000
     22 C          62.8758   84.3361   14.2312 C.ar    1  UNL1        0.0711
     23 C          62.1728   83.0600   14.5881 C.ar    1  UNL1        0.0077
     24 C          61.9455   82.0106   13.5407 C.ar    1  UNL1        0.0711
     25 C          62.4212   82.2373   12.1363 C.ar    1  UNL1        0.0000
     26 C          63.1031   85.3854   15.2787 C.3     1  UNL1        0.4186
     27 F          63.3304   86.4348   16.3261 F       1  UNL1       -0.1659
     28 F          64.1850   85.9926   14.4356 F       1  UNL1       -0.1659
     29 F          62.0212   84.7783   16.1218 F       1  UNL1       -0.1659
     30 C          61.2424   80.7346   13.8976 C.3     1  UNL1        0.4186
     31 F          60.5394   79.4585   14.2545 F       1  UNL1       -0.1659
     32 F          62.4765   79.9569   13.5481 F       1  UNL1       -0.1659
     33 F          60.0083   81.5123   14.2470 F       1  UNL1       -0.1659
@<TRIPOS>BOND
     1    11    12    1
     2    12    13   ar
     3    13    14   ar
     4    14     5    1
     5     5     6   ar
     6     6     7   ar
     7     7     8   ar
     8     8     1    1
     9     1     2   am
    10     2     3    2
    11     2    18    1
    12    18    19    1
    13    18    20    1
    14    20    21   ar
    15    21    22   ar
    16    22    26    1
    17    26    27    1
    18    26    28    1
    19    26    29    1
    20    22    23   ar
    21    23    24   ar
    22    24    30    1
    23    30    31    1
    24    30    32    1
    25    30    33    1
    26    24    25   ar
    27     8     9   ar
    28     9    10   ar
    29    14    15   ar
    30    15    16   ar
    31    16    17   ar
    32    17    12   ar
    33    10     5   ar
    34    25    20   ar
    35     1     4    1
@<TRIPOS>MOLECULE
*****
 33 35 0 0 0
SMALL
GASTEIGER

@<TRIPOS>ATOM
      1 N          61.6341   85.4057    9.9345 N.am    1  UNL1       -0.2837
      2 C          62.9330   84.7952    9.4982 C.2     1  UNL1        0.2297
      3 O          63.5668   85.2231    8.2079 O.2     1  UNL1       -0.2744
      4 H          61.2181   85.1249   10.7814 H       1  UNL1        0.1549
      5 C          59.6392   88.5210    7.3722 C.ar    1  UNL1        0.0002
      6 C          60.4684   88.9378    8.5506 C.ar    1  UNL1        0.0013
      7 C          61.1334   87.8995    9.4047 C.ar    1  UNL1        0.0147
      8 C          60.9692   86.4441    9.0804 C.ar    1  UNL1        0.0503
      9 C          60.1399   86.0272    7.9020 C.ar    1  UNL1        0.0147
     10 C          59.4749   87.0657    7.0479 C.ar    1  UNL1        0.0013
     11 C          59.9730   92.5470    4.1042 C.3     1  UNL1        0.0521
     12 C          59.1412   91.5724    4.8841 C.ar    1  UNL1        0.0594
     13 C          59.8061   90.5340    5.7382 C.ar    1  UNL1        0.0147
     14 C          58.9742   89.5594    6.5181 C.ar    1  UNL1        0.0027
     15 C          57.4774   89.6233    6.4439 C.ar    1  UNL1        0.0207
     16 C          56.8125   90.6617    5.5898 C.ar    1  UNL1        0.0984
     17 N          57.6444   91.6363    4.8099 N.ar    1  UNL1       -0.2481
     18 C          63.5979   83.7569   10.3523 C.3     1  UNL1        0.0990
     19 C          64.7337   82.9470    9.8007 C.3     1  UNL1        0.0143
     20 C          63.1272   83.5283   11.7582 C.ar    1  UNL1       -0.0140
     21 C          62.4308   82.2492   12.1173 C.ar    1  UNL1        0.0000
     22 C          61.9601   82.0207   13.5230 C.ar    1  UNL1        0.0711
     23 C          62.1857   83.0712   14.5696 C.ar    1  UNL1        0.0077
     24 C          62.8821   84.3503   14.2105 C.ar    1  UNL1        0.0711
     25 C          63.3528   84.5788   12.8048 C.ar    1  UNL1        0.0000
     26 C          61.2637   80.7415   13.8822 C.3     1  UNL1        0.4186
     27 F          60.5673   79.4624   14.2413 F       1  UNL1       -0.1659
     28 F          62.5016   79.9697   13.5333 F       1  UNL1       -0.1659
     29 F          60.0258   81.5134   14.2310 F       1  UNL1       -0.1659
     30 C          63.1078   85.4008   15.2572 C.3     1  UNL1        0.4186
     31 F          63.3334   86.4513   16.3038 F       1  UNL1       -0.1659
     32 F          61.9531   84.8610   16.0479 F       1  UNL1       -0.1659
     33 F          64.2625   85.9406   14.4664 F       1  UNL1       -0.1659
@<TRIPOS>BOND
     1    11    12    1
     2    12    13   ar
     3    13    14   ar
     4    14     5    1
     5     5     6   ar
     6     6     7   ar
     7     7     8   ar
     8     8     1    1
     9     1     2   am
    10     2     3    2
    11     2    18    1
    12    18    19    1
    13    18    20    1
    14    20    21   ar
    15    21    22   ar
    16    22    26    1
    17    26    27    1
    18    26    28    1
    19    26    29    1
    20    22    23   ar
    21    23    24   ar
    22    24    30    1
    23    30    31    1
    24    30    32    1
    25    30    33    1
    26    24    25   ar
    27     8     9   ar
    28     9    10   ar
    29    14    15   ar
    30    15    16   ar
    31    16    17   ar
    32    17    12   ar
    33    10     5   ar
    34    25    20   ar
    35     1     4    1
@<TRIPOS>MOLECULE
*****
 33 35 0 0 0
SMALL
GASTEIGER

@<TRIPOS>ATOM
      1 N          58.8027   89.7376    6.4580 N.am    1  UNL1       -0.2837
      2 C          59.5555   90.6046    5.4928 C.2     1  UNL1        0.2297
      3 O          61.0536   90.5474    5.4444 O.2     1  UNL1       -0.2744
      4 H          57.8194   89.7752    6.4898 H       1  UNL1        0.1549
      5 C          61.0384   86.9647    9.2080 C.ar    1  UNL1        0.0002
      6 C          60.2825   86.4108    8.0367 C.ar    1  UNL1        0.0013
      7 C          59.5373   87.3351    7.1200 C.ar    1  UNL1        0.0147
      8 C          59.5479   88.8133    7.3746 C.ar    1  UNL1        0.0503
      9 C          60.3037   89.3672    8.5459 C.ar    1  UNL1        0.0147
     10 C          61.0490   88.4429    9.4626 C.ar    1  UNL1        0.0013
     11 C          64.3234   82.9990    9.9021 C.3     1  UNL1        0.0521
     12 C          63.4261   84.0575   10.4717 C.ar    1  UNL1        0.0594
     13 C          62.6809   84.9818    9.5551 C.ar    1  UNL1        0.0147
     14 C          61.7836   86.0404   10.1247 C.ar    1  UNL1        0.0027
     15 C          61.6316   86.1746   11.6109 C.ar    1  UNL1        0.0207
     16 C          62.3768   85.2502   12.5275 C.ar    1  UNL1        0.0984
     17 N          63.2741   84.1917   11.9579 N.ar    1  UNL1       -0.2481
     18 C          58.8103   91.5288    4.5762 C.3     1  UNL1        0.0990
     19 C          57.3700   91.8508    4.8444 C.3     1  UNL1        0.0143
     20 C          59.5053   92.1312    3.3911 C.ar    1  UNL1       -0.0140
     21 C          58.7113   92.5537    2.1908 C.ar    1  UNL1        0.0000
     22 C          59.4063   93.1560    1.0059 C.ar    1  UNL1        0.0711
     23 C          60.8954   93.3358    1.0213 C.ar    1  UNL1        0.0077
     24 C          61.6895   92.9132    2.2216 C.ar    1  UNL1        0.0711
     25 C          60.9944   92.3110    3.4066 C.ar    1  UNL1        0.0000
     26 C          58.6122   93.5786   -0.1946 C.3     1  UNL1        0.4186
     27 F          57.8182   94.0011   -1.3949 F       1  UNL1       -0.1659
     28 F          58.5976   92.1608   -0.6839 F       1  UNL1       -0.1659
     29 F          58.6269   94.9964    0.2948 F       1  UNL1       -0.1659
     30 C          63.1786   93.0930    2.2370 C.3     1  UNL1        0.4186
     31 F          64.6677   93.2728    2.2524 F       1  UNL1       -0.1659
     32 F          63.0289   94.3951    1.5075 F       1  UNL1       -0.1659
     33 F          63.3282   91.7909    2.9666 F       1  UNL1       -0.1659
@<TRIPOS>BOND
     1    11    12    1
     2    12    13   ar
     3    13    14   ar
     4    14     5    1
     5     5     6   ar
     6     6     7   ar
     7     7     8   ar
     8     8     1    1
     9     1     2   am
    10     2     3    2
    11     2    18    1
    12    18    19    1
    13    18    20    1
    14    20    21   ar
    15    21    22   ar
    16    22    26    1
    17    26    27    1
    18    26    28    1
    19    26    29    1
    20    22    23   ar
    21    23    24   ar
    22    24    30    1
    23    30    31    1
    24    30    32    1
    25    30    33    1
    26    24    25   ar
    27     8     9   ar
    28     9    10   ar
    29    14    15   ar
    30    15    16   ar
    31    16    17   ar
    32    17    12   ar
    33    10     5   ar
    34    25    20   ar
    35     1     4    1
@<TRIPOS>MOLECULE
*****
 33 35 0 0 0
SMALL
GASTEIGER

@<TRIPOS>ATOM
      1 N          58.8587   89.8633    6.4905 N.am    1  UNL1       -0.2837
      2 C          59.6154   90.6483    5.4603 C.2     1  UNL1        0.2297
      3 O          61.1016   90.4876    5.3375 O.2     1  UNL1       -0.2744
      4 H          57.8832   89.9688    6.5711 H       1  UNL1        0.1549
      5 C          61.0476   87.0264    9.2127 C.ar    1  UNL1        0.0002
      6 C          60.2930   86.4979    8.0290 C.ar    1  UNL1        0.0013
      7 C          59.5634   87.4435    7.1216 C.ar    1  UNL1        0.0147
      8 C          59.5883   88.9177    7.3979 C.ar    1  UNL1        0.0503
      9 C          60.3429   89.4462    8.5817 C.ar    1  UNL1        0.0147
     10 C          61.0726   88.5005    9.4891 C.ar    1  UNL1        0.0013
     11 C          64.3045   83.0312    9.8689 C.3     1  UNL1        0.0521
     12 C          63.4057   84.0831   10.4482 C.ar    1  UNL1        0.0594
     13 C          62.6761   85.0288    9.5409 C.ar    1  UNL1        0.0147
     14 C          61.7773   86.0807   10.1202 C.ar    1  UNL1        0.0027
     15 C          61.6081   86.1869   11.6068 C.ar    1  UNL1        0.0207
     16 C          62.3377   85.2413   12.5141 C.ar    1  UNL1        0.0984
     17 N          63.2365   84.1893   11.9348 N.ar    1  UNL1       -0.2481
     18 C          58.8857   91.5939    4.5529 C.3     1  UNL1        0.0990
     19 C          57.4594   91.9587    4.8402 C.3     1  UNL1        0.0143
     20 C          59.5824   92.1747    3.3582 C.ar    1  UNL1       -0.0140
     21 C          61.0690   92.3737    3.3801 C.ar    1  UNL1        0.0000
     22 C          61.7656   92.9545    2.1854 C.ar    1  UNL1        0.0711
     23 C          60.9756   93.3363    0.9687 C.ar    1  UNL1        0.0077
     24 C          59.4891   93.1372    0.9468 C.ar    1  UNL1        0.0711
     25 C          58.7925   92.5564    2.1415 C.ar    1  UNL1        0.0000
     26 C          63.2522   93.1536    2.2073 C.3     1  UNL1        0.4186
     27 F          64.7387   93.3527    2.2292 F       1  UNL1       -0.1659
     28 F          63.0941   94.4206    1.4201 F       1  UNL1       -0.1659
     29 F          63.4103   91.8866    2.9945 F       1  UNL1       -0.1659
     30 C          58.6991   93.5190   -0.2699 C.3     1  UNL1        0.4186
     31 F          57.9092   93.9007   -1.4865 F       1  UNL1       -0.1659
     32 F          58.5516   94.9132    0.2634 F       1  UNL1       -0.1659
     33 F          58.8467   92.1248   -0.8031 F       1  UNL1       -0.1659
@<TRIPOS>BOND
     1    11    12    1
     2    12    13   ar
     3    13    14   ar
     4    14     5    1
     5     5     6   ar
     6     6     7   ar
     7     7     8   ar
     8     8     1    1
     9     1     2   am
    10     2     3    2
    11     2    18    1
    12    18    19    1
    13    18    20    1
    14    20    21   ar
    15    21    22   ar
    16    22    26    1
    17    26    27    1
    18    26    28    1
    19    26    29    1
    20    22    23   ar
    21    23    24   ar
    22    24    30    1
    23    30    31    1
    24    30    32    1
    25    30    33    1
    26    24    25   ar
    27     8     9   ar
    28     9    10   ar
    29    14    15   ar
    30    15    16   ar
    31    16    17   ar
    32    17    12   ar
    33    10     5   ar
    34    25    20   ar
    35     1     4    1
@<TRIPOS>MOLECULE
*****
 33 35 0 0 0
SMALL
GASTEIGER

@<TRIPOS>ATOM
      1 N          72.2224   74.8449   14.4148 N.am    1  UNL1       -0.2837
      2 C          71.0619   74.6594   15.3471 C.2     1  UNL1        0.2297
      3 O          69.9720   75.6885   15.4018 O.2     1  UNL1       -0.2744
      4 H          72.9377   74.1694   14.3789 H       1  UNL1        0.1549
      5 C          72.4339   78.4884   11.7824 C.ar    1  UNL1        0.0002
      6 C          73.2842   78.4034   13.0152 C.ar    1  UNL1        0.0013
      7 C          73.2137   77.1890   13.8927 C.ar    1  UNL1        0.0147
      8 C          72.2928   76.0593   13.5374 C.ar    1  UNL1        0.0503
      9 C          71.4425   76.1443   12.3046 C.ar    1  UNL1        0.0147
     10 C          71.5131   77.3589   11.4271 C.ar    1  UNL1        0.0013
     11 C          71.9410   80.6945    7.1037 C.3     1  UNL1        0.0521
     12 C          72.2579   80.8060    8.5656 C.ar    1  UNL1        0.0594
     13 C          72.1874   79.5915    9.4430 C.ar    1  UNL1        0.0147
     14 C          72.5044   79.7030   10.9049 C.ar    1  UNL1        0.0027
     15 C          72.8918   81.0290   11.4893 C.ar    1  UNL1        0.0207
     16 C          72.9623   82.2435   10.6119 C.ar    1  UNL1        0.0984
     17 N          72.6454   82.1320    9.1500 N.ar    1  UNL1       -0.2481
     18 C          70.9915   73.4449   16.2245 C.3     1  UNL1        0.0990
     19 C          70.8591   73.6000   17.7106 C.3     1  UNL1        0.0143
     20 C          71.0533   72.0753   15.6159 C.ar    1  UNL1       -0.0140
     21 C          71.8047   70.9789   16.3111 C.ar    1  UNL1        0.0000
     22 C          71.8666   69.6094   15.7025 C.ar    1  UNL1        0.0711
     23 C          71.1770   69.3362   14.3987 C.ar    1  UNL1        0.0077
     24 C          70.4256   70.4326   13.7035 C.ar    1  UNL1        0.0711
     25 C          70.3638   71.8021   14.3121 C.ar    1  UNL1        0.0000
     26 C          72.6180   68.5129   16.3977 C.3     1  UNL1        0.4186
     27 F          73.3693   67.4165   17.0929 F       1  UNL1       -0.1659
     28 F          71.6103   68.5268   17.5087 F       1  UNL1       -0.1659
     29 F          73.6257   68.4990   15.2867 F       1  UNL1       -0.1659
     30 C          69.7361   70.1594   12.3997 C.3     1  UNL1        0.4186
     31 F          69.0465   69.8862   11.0959 F       1  UNL1       -0.1659
     32 F          69.5203   68.7335   12.8126 F       1  UNL1       -0.1659
     33 F          69.9519   71.5852   11.9869 F       1  UNL1       -0.1659
@<TRIPOS>BOND
     1    11    12    1
     2    12    13   ar
     3    13    14   ar
     4    14     5    1
     5     5     6   ar
     6     6     7   ar
     7     7     8   ar
     8     8     1    1
     9     1     2   am
    10     2     3    2
    11     2    18    1
    12    18    19    1
    13    18    20    1
    14    20    21   ar
    15    21    22   ar
    16    22    26    1
    17    26    27    1
    18    26    28    1
    19    26    29    1
    20    22    23   ar
    21    23    24   ar
    22    24    30    1
    23    30    31    1
    24    30    32    1
    25    30    33    1
    26    24    25   ar
    27     8     9   ar
    28     9    10   ar
    29    14    15   ar
    30    15    16   ar
    31    16    17   ar
    32    17    12   ar
    33    10     5   ar
    34    25    20   ar
    35     1     4    1
