@<TRIPOS>MOLECULE
*****
 37 40 0 0 0
SMALL
GASTEIGER

@<TRIPOS>ATOM
      1 C          62.2687   89.8750   10.8897 C.2     1  UNL1        0.2456
      2 O          61.3387   90.7149   11.7140 O.2     1  UNL1       -0.2702
      3 N          63.5104   90.4824   10.3069 N.am    1  UNL1       -0.3005
      4 H          64.1208   89.9312    9.7659 H       1  UNL1        0.1497
      5 C          63.4272   87.7708   12.6870 C.3     1  UNL1        0.0328
      6 C          62.5364   87.3757   11.5465 C.ar    1  UNL1        0.0002
      7 C          62.2249   85.9285   11.3048 C.ar    1  UNL1        0.0774
      8 N          61.3341   85.5333   10.1645 N.ar    1  UNL1       -0.2457
      9 C          60.7549   86.5854    9.2658 C.ar    1  UNL1        0.0814
     10 C          59.8641   86.1903    8.1255 C.ar    1  UNL1        0.0196
     11 C          59.2849   87.2424    7.2269 C.ar    1  UNL1        0.0082
     12 C          59.5965   88.6896    7.4686 C.ar    1  UNL1        0.0347
     13 BR         59.0172   89.7418    6.5699 Br      1  UNL1       -0.0490
     14 C          60.4872   89.0848    8.6089 C.ar    1  UNL1        0.0083
     15 C          61.0664   88.0327    9.5075 C.ar    1  UNL1        0.0222
     16 C          61.9572   88.4278   10.6479 C.ar    1  UNL1        0.0523
     17 C          62.8042   84.8763   12.2035 C.ar    1  UNL1        0.0173
     18 C          63.8125   83.9040   11.6671 C.ar    1  UNL1        0.0015
     19 C          64.3917   82.8519   12.5658 C.ar    1  UNL1        0.0000
     20 C          63.9626   82.7722   14.0009 C.ar    1  UNL1        0.0000
     21 C          62.9543   83.7446   14.5373 C.ar    1  UNL1        0.0000
     22 C          62.3750   84.7966   13.6386 C.ar    1  UNL1        0.0015
     23 C          63.8219   91.9297   10.5487 C.3     1  UNL1        0.0940
     24 C          65.0769   92.3158   11.2737 C.3     1  UNL1        0.0428
     25 C          66.2670   92.8067   10.5039 C.ar    1  UNL1       -0.0103
     26 C          67.3465   91.8470   10.0993 C.ar    1  UNL1       -0.0034
     27 C          68.5366   92.3380    9.3295 C.ar    1  UNL1       -0.0003
     28 C          68.6472   93.7886    8.9642 C.ar    1  UNL1        0.0008
     29 C          67.5677   94.7483    9.3688 C.ar    1  UNL1        0.0111
     30 C          66.3776   94.2574   10.1386 C.ar    1  UNL1        0.0537
     31 CL         65.2981   95.2171   10.5432 Cl      1  UNL1       -0.0826
     32 C          65.1419   92.2109   12.7687 C.3     1  UNL1        0.0065
     33 C          64.8279   90.9087   13.4435 C.3     1  UNL1        0.0063
     34 C          64.9476   90.7883   14.9339 C.3     1  UNL1        0.0417
     35 C          63.7155   90.8059   15.7892 C.2     1  UNL1        0.0503
     36 O          62.7100   89.6983   15.6790 O.co2   1  UNL1       -0.5492
     37 O          63.4888   91.9312   16.7547 O.co2   1  UNL1       -0.5492
@<TRIPOS>UNITY_ATOM_ATTR
36 1
charge -1
@<TRIPOS>BOND
     1     5     6    1
     2     6     7   ar
     3     7    17    1
     4    17    18   ar
     5    18    19   ar
     6    19    20   ar
     7    20    21   ar
     8    21    22   ar
     9     7     8   ar
    10     8     9   ar
    11     9    10   ar
    12    10    11   ar
    13    11    12   ar
    14    12    13    1
    15    12    14   ar
    16    14    15   ar
    17    15    16   ar
    18    16     1    1
    19     1     2    2
    20     1     3   am
    21     3    23    1
    22    23    24    1
    23    24    32    1
    24    32    33    1
    25    33    34    1
    26    34    35    1
    27    35    36   ar
    28    35    37   ar
    29    24    25    1
    30    25    26   ar
    31    26    27   ar
    32    27    28   ar
    33    28    29   ar
    34    29    30   ar
    35    30    31    1
    36    16     6   ar
    37    30    25   ar
    38    22    17   ar
    39    15     9   ar
    40     3     4    1
@<TRIPOS>MOLECULE
*****
 37 40 0 0 0
SMALL
GASTEIGER

@<TRIPOS>ATOM
      1 C          62.2830   89.9554   10.8024 C.2     1  UNL1        0.2456
      2 O          61.3674   90.8198   11.6175 O.2     1  UNL1       -0.2702
      3 N          63.5114   90.5458   10.1759 N.am    1  UNL1       -0.3005
      4 H          64.1123   89.9784    9.6409 H       1  UNL1        0.1497
      5 C          63.4587   87.9151   12.6612 C.3     1  UNL1        0.0328
      6 C          62.5581   87.4804   11.5431 C.ar    1  UNL1        0.0002
      7 C          62.2453   86.0255   11.3545 C.ar    1  UNL1        0.0774
      8 N          61.3447   85.5908   10.2366 N.ar    1  UNL1       -0.2457
      9 C          60.7568   86.6110    9.3072 C.ar    1  UNL1        0.0814
     10 C          59.8562   86.1762    8.1892 C.ar    1  UNL1        0.0196
     11 C          59.2683   87.1964    7.2599 C.ar    1  UNL1        0.0082
     12 C          59.5811   88.6512    7.4485 C.ar    1  UNL1        0.0347
     13 BR         58.9932   89.6714    6.5191 Br      1  UNL1       -0.0490
     14 C          60.4817   89.0860    8.5664 C.ar    1  UNL1        0.0083
     15 C          61.0695   88.0658    9.4958 C.ar    1  UNL1        0.0222
     16 C          61.9702   88.5005   10.6138 C.ar    1  UNL1        0.0523
     17 C          62.8332   85.0054   12.2839 C.ar    1  UNL1        0.0173
     18 C          63.8234   84.0036   11.7684 C.ar    1  UNL1        0.0015
     19 C          64.4113   82.9835   12.6978 C.ar    1  UNL1        0.0000
     20 C          64.0089   82.9652   14.1427 C.ar    1  UNL1        0.0000
     21 C          63.0187   83.9671   14.6583 C.ar    1  UNL1        0.0000
     22 C          62.4309   84.9871   13.7289 C.ar    1  UNL1        0.0015
     23 C          63.8241   92.0007   10.3645 C.3     1  UNL1        0.0940
     24 C          65.0798   92.4119   11.0745 C.3     1  UNL1        0.0428
     25 C          65.9393   93.5025   10.5072 C.ar    1  UNL1       -0.0103
     26 C          65.5081   94.9345   10.6235 C.ar    1  UNL1       -0.0034
     27 C          66.3676   96.0250   10.0562 C.ar    1  UNL1       -0.0003
     28 C          67.6583   95.6836    9.3725 C.ar    1  UNL1        0.0008
     29 C          68.0895   94.2517    9.2561 C.ar    1  UNL1        0.0111
     30 C          67.2300   93.1611    9.8234 C.ar    1  UNL1        0.0537
     31 CL         67.6612   91.7292    9.7071 Cl      1  UNL1       -0.0826
     32 C          65.4759   91.7327   12.3519 C.3     1  UNL1        0.0065
     33 C          64.4557   91.5041   13.4274 C.3     1  UNL1        0.0063
     34 C          64.8292   90.7458   14.6666 C.3     1  UNL1        0.0417
     35 C          63.8134   90.5310   15.7492 C.2     1  UNL1        0.0503
     36 O          63.4459   91.6587   16.6674 O.co2   1  UNL1       -0.5492
     37 O          63.1651   89.1883   15.9136 O.co2   1  UNL1       -0.5492
@<TRIPOS>UNITY_ATOM_ATTR
36 1
charge -1
@<TRIPOS>BOND
     1     5     6    1
     2     6     7   ar
     3     7    17    1
     4    17    18   ar
     5    18    19   ar
     6    19    20   ar
     7    20    21   ar
     8    21    22   ar
     9     7     8   ar
    10     8     9   ar
    11     9    10   ar
    12    10    11   ar
    13    11    12   ar
    14    12    13    1
    15    12    14   ar
    16    14    15   ar
    17    15    16   ar
    18    16     1    1
    19     1     2    2
    20     1     3   am
    21     3    23    1
    22    23    24    1
    23    24    32    1
    24    32    33    1
    25    33    34    1
    26    34    35    1
    27    35    36   ar
    28    35    37   ar
    29    24    25    1
    30    25    26   ar
    31    26    27   ar
    32    27    28   ar
    33    28    29   ar
    34    29    30   ar
    35    30    31    1
    36    16     6   ar
    37    30    25   ar
    38    22    17   ar
    39    15     9   ar
    40     3     4    1
@<TRIPOS>MOLECULE
*****
 37 40 0 0 0
SMALL
GASTEIGER

@<TRIPOS>ATOM
      1 C          62.2361   89.5428   11.3032 C.2     1  UNL1        0.2456
      2 O          61.3318   90.2025   12.3016 O.2     1  UNL1       -0.2702
      3 N          63.3976   90.2987   10.7290 N.am    1  UNL1       -0.3005
      4 H          63.9912   89.8657   10.0737 H       1  UNL1        0.1497
      5 C          63.3923   87.2698   12.8832 C.3     1  UNL1        0.0328
      6 C          62.5570   86.9907   11.6689 C.ar    1  UNL1        0.0002
      7 C          62.2999   85.5752   11.2446 C.ar    1  UNL1        0.0774
      8 N          61.4647   85.2961   10.0303 N.ar    1  UNL1       -0.2457
      9 C          60.8866   86.4326    9.2402 C.ar    1  UNL1        0.0814
     10 C          60.0514   86.1536    8.0259 C.ar    1  UNL1        0.0196
     11 C          59.4734   87.2901    7.2359 C.ar    1  UNL1        0.0082
     12 C          59.7305   88.7057    7.6602 C.ar    1  UNL1        0.0347
     13 BR         59.1524   89.8422    6.8702 Br      1  UNL1       -0.0490
     14 C          60.5657   88.9847    8.8745 C.ar    1  UNL1        0.0083
     15 C          61.1437   87.8482    9.6645 C.ar    1  UNL1        0.0222
     16 C          61.9790   88.1272   10.8789 C.ar    1  UNL1        0.0523
     17 C          62.8780   84.4386   12.0346 C.ar    1  UNL1        0.0173
     18 C          62.4870   84.2477   13.4701 C.ar    1  UNL1        0.0015
     19 C          63.0651   83.1112   14.2600 C.ar    1  UNL1        0.0000
     20 C          64.0343   82.1656   13.6146 C.ar    1  UNL1        0.0000
     21 C          64.4253   82.3566   12.1791 C.ar    1  UNL1        0.0000
     22 C          63.8472   83.4930   11.3891 C.ar    1  UNL1        0.0015
     23 C          63.6547   91.7143   11.1533 C.3     1  UNL1        0.0940
     24 C          65.0622   92.1950   11.3479 C.3     1  UNL1        0.0428
     25 C          65.6237   92.3306   12.7322 C.ar    1  UNL1       -0.0103
     26 C          65.6075   91.1572   13.6664 C.ar    1  UNL1       -0.0034
     27 C          66.1690   91.2928   15.0507 C.ar    1  UNL1       -0.0003
     28 C          66.7468   92.6018   15.5008 C.ar    1  UNL1        0.0008
     29 C          66.7631   93.7753   14.5665 C.ar    1  UNL1        0.0111
     30 C          66.2015   93.6397   13.1823 C.ar    1  UNL1        0.0537
     31 CL         66.2178   94.8131   12.2480 Cl      1  UNL1       -0.0826
     32 C          65.9081   92.5402   10.1582 C.3     1  UNL1        0.0065
     33 C          67.3874   92.2951   10.1934 C.3     1  UNL1        0.0063
     34 C          68.3191   93.2251    9.4742 C.3     1  UNL1        0.0417
     35 C          67.8257   94.5581    8.9945 C.2     1  UNL1        0.0503
     36 O          67.9658   95.7686    9.8690 O.co2   1  UNL1       -0.5492
     37 O          67.1923   94.6803    7.6404 O.co2   1  UNL1       -0.5492
@<TRIPOS>UNITY_ATOM_ATTR
36 1
charge -1
@<TRIPOS>BOND
     1     5     6    1
     2     6     7   ar
     3     7    17    1
     4    17    18   ar
     5    18    19   ar
     6    19    20   ar
     7    20    21   ar
     8    21    22   ar
     9     7     8   ar
    10     8     9   ar
    11     9    10   ar
    12    10    11   ar
    13    11    12   ar
    14    12    13    1
    15    12    14   ar
    16    14    15   ar
    17    15    16   ar
    18    16     1    1
    19     1     2    2
    20     1     3   am
    21     3    23    1
    22    23    24    1
    23    24    32    1
    24    32    33    1
    25    33    34    1
    26    34    35    1
    27    35    36   ar
    28    35    37   ar
    29    24    25    1
    30    25    26   ar
    31    26    27   ar
    32    27    28   ar
    33    28    29   ar
    34    29    30   ar
    35    30    31    1
    36    16     6   ar
    37    30    25   ar
    38    22    17   ar
    39    15     9   ar
    40     3     4    1
@<TRIPOS>MOLECULE
*****
 37 40 0 0 0
SMALL
GASTEIGER

@<TRIPOS>ATOM
      1 C          62.2284   89.9159   11.6681 C.2     1  UNL1        0.2456
      2 O          60.8850   90.5257   11.3975 O.2     1  UNL1       -0.2702
      3 N          62.4379   88.4439   11.4689 N.am    1  UNL1       -0.3005
      4 H          63.3196   88.0437   11.6464 H       1  UNL1        0.1497
      5 C          63.6895   91.6663    9.7183 C.3     1  UNL1        0.0328
      6 C          64.0931   91.6531   11.1630 C.ar    1  UNL1        0.0002
      7 C          65.2271   92.5152   11.6327 C.ar    1  UNL1        0.0774
      8 N          65.6307   92.5021   13.0773 N.ar    1  UNL1       -0.2457
      9 C          64.9002   91.6268   14.0523 C.ar    1  UNL1        0.0814
     10 C          65.3038   91.6137   15.4968 C.ar    1  UNL1        0.0196
     11 C          64.5733   90.7386   16.4717 C.ar    1  UNL1        0.0082
     12 C          63.4392   89.8765   16.0019 C.ar    1  UNL1        0.0347
     13 BR         62.7087   89.0013   16.9769 Br      1  UNL1       -0.0490
     14 C          63.0356   89.8896   14.5573 C.ar    1  UNL1        0.0083
     15 C          63.7661   90.7648   13.5825 C.ar    1  UNL1        0.0222
     16 C          63.3625   90.7779   12.1378 C.ar    1  UNL1        0.0523
     17 C          65.9577   93.3904   10.6578 C.ar    1  UNL1        0.0173
     18 C          67.1444   92.8552    9.9126 C.ar    1  UNL1        0.0015
     19 C          67.8748   93.7305    8.9378 C.ar    1  UNL1        0.0000
     20 C          67.4186   95.1408    8.7081 C.ar    1  UNL1        0.0000
     21 C          66.2319   95.6759    9.4532 C.ar    1  UNL1        0.0000
     22 C          65.5014   94.8007   10.4281 C.ar    1  UNL1        0.0015
     23 C          61.3038   87.5818   10.9991 C.3     1  UNL1        0.0940
     24 C          61.5752   86.4032   10.1120 C.3     1  UNL1        0.0428
     25 C          62.4662   85.2949   10.5892 C.ar    1  UNL1       -0.0103
     26 C          62.5414   84.9698   12.0516 C.ar    1  UNL1       -0.0034
     27 C          63.4325   83.8615   12.5287 C.ar    1  UNL1       -0.0003
     28 C          64.2484   83.0783   11.5434 C.ar    1  UNL1        0.0008
     29 C          64.1733   83.4033   10.0810 C.ar    1  UNL1        0.0111
     30 C          63.2822   84.5116    9.6039 C.ar    1  UNL1        0.0537
     31 CL         63.2070   84.8367    8.1414 Cl      1  UNL1       -0.0826
     32 C          60.9556   86.3327    8.7478 C.3     1  UNL1        0.0065
     33 C          59.5119   86.6941    8.5602 C.3     1  UNL1        0.0063
     34 C          59.0900   87.5040    7.3702 C.3     1  UNL1        0.0417
     35 C          59.4527   88.9571    7.2851 C.2     1  UNL1        0.0503
     36 O          60.1391   89.6275    8.4381 O.co2   1  UNL1       -0.5492
     37 O          59.1289   89.7397    6.0471 O.co2   1  UNL1       -0.5492
@<TRIPOS>UNITY_ATOM_ATTR
36 1
charge -1
@<TRIPOS>BOND
     1     5     6    1
     2     6     7   ar
     3     7    17    1
     4    17    18   ar
     5    18    19   ar
     6    19    20   ar
     7    20    21   ar
     8    21    22   ar
     9     7     8   ar
    10     8     9   ar
    11     9    10   ar
    12    10    11   ar
    13    11    12   ar
    14    12    13    1
    15    12    14   ar
    16    14    15   ar
    17    15    16   ar
    18    16     1    1
    19     1     2    2
    20     1     3   am
    21     3    23    1
    22    23    24    1
    23    24    32    1
    24    32    33    1
    25    33    34    1
    26    34    35    1
    27    35    36   ar
    28    35    37   ar
    29    24    25    1
    30    25    26   ar
    31    26    27   ar
    32    27    28   ar
    33    28    29   ar
    34    29    30   ar
    35    30    31    1
    36    16     6   ar
    37    30    25   ar
    38    22    17   ar
    39    15     9   ar
    40     3     4    1
@<TRIPOS>MOLECULE
*****
 37 40 0 0 0
SMALL
GASTEIGER

@<TRIPOS>ATOM
      1 C          62.3515   90.1623   11.6118 C.2     1  UNL1        0.2456
      2 O          60.9607   90.7206   11.5494 O.2     1  UNL1       -0.2702
      3 N          62.6108   88.7460   11.1910 N.am    1  UNL1       -0.3005
      4 H          63.5236   88.3796   11.2319 H       1  UNL1        0.1497
      5 C          63.8023   91.9529    9.6911 C.3     1  UNL1        0.0328
      6 C          64.2085   91.9155   11.1347 C.ar    1  UNL1        0.0002
      7 C          65.3401   92.7735   11.6178 C.ar    1  UNL1        0.0774
      8 N          65.7463   92.7361   13.0613 N.ar    1  UNL1       -0.2457
      9 C          65.0209   91.8407   14.0216 C.ar    1  UNL1        0.0814
     10 C          65.4271   91.8033   15.4651 C.ar    1  UNL1        0.0196
     11 C          64.7017   90.9080   16.4253 C.ar    1  UNL1        0.0082
     12 C          63.5701   90.0501   15.9422 C.ar    1  UNL1        0.0347
     13 BR         62.8447   89.1547   16.9025 Br      1  UNL1       -0.0490
     14 C          63.1639   90.0875   14.4987 C.ar    1  UNL1        0.0083
     15 C          63.8893   90.9828   13.5385 C.ar    1  UNL1        0.0222
     16 C          63.4831   91.0202   12.0949 C.ar    1  UNL1        0.0523
     17 C          66.0655   93.6688   10.6575 C.ar    1  UNL1        0.0173
     18 C          65.6315   95.0945   10.4874 C.ar    1  UNL1        0.0015
     19 C          66.3569   95.9898    9.5271 C.ar    1  UNL1        0.0000
     20 C          67.5163   95.4593    8.7368 C.ar    1  UNL1        0.0000
     21 C          67.9502   94.0336    8.9069 C.ar    1  UNL1        0.0000
     22 C          67.2248   93.1384    9.8672 C.ar    1  UNL1        0.0015
     23 C          61.4792   87.8881   10.7078 C.3     1  UNL1        0.0940
     24 C          61.6892   86.4177   10.4984 C.3     1  UNL1        0.0428
     25 C          61.7435   85.8585    9.1077 C.ar    1  UNL1       -0.0103
     26 C          62.9798   85.1565    8.6293 C.ar    1  UNL1       -0.0034
     27 C          63.0341   84.5973    7.2385 C.ar    1  UNL1       -0.0003
     28 C          61.8522   84.7400    6.3260 C.ar    1  UNL1        0.0008
     29 C          60.6159   85.4420    6.8044 C.ar    1  UNL1        0.0111
     30 C          60.5615   86.0012    8.1951 C.ar    1  UNL1        0.0537
     31 CL         59.3252   86.7032    8.6735 Cl      1  UNL1       -0.0826
     32 C          61.8448   85.5066   11.6798 C.3     1  UNL1        0.0065
     33 C          63.1897   85.3328   12.3209 C.3     1  UNL1        0.0063
     34 C          63.6781   83.9606   12.6793 C.3     1  UNL1        0.0417
     35 C          63.7762   82.8999   11.6233 C.2     1  UNL1        0.0503
     36 O          64.8739   82.9570   10.6025 O.co2   1  UNL1       -0.5492
     37 O          62.7767   81.7819   11.5880 O.co2   1  UNL1       -0.5492
@<TRIPOS>UNITY_ATOM_ATTR
36 1
charge -1
@<TRIPOS>BOND
     1     5     6    1
     2     6     7   ar
     3     7    17    1
     4    17    18   ar
     5    18    19   ar
     6    19    20   ar
     7    20    21   ar
     8    21    22   ar
     9     7     8   ar
    10     8     9   ar
    11     9    10   ar
    12    10    11   ar
    13    11    12   ar
    14    12    13    1
    15    12    14   ar
    16    14    15   ar
    17    15    16   ar
    18    16     1    1
    19     1     2    2
    20     1     3   am
    21     3    23    1
    22    23    24    1
    23    24    32    1
    24    32    33    1
    25    33    34    1
    26    34    35    1
    27    35    36   ar
    28    35    37   ar
    29    24    25    1
    30    25    26   ar
    31    26    27   ar
    32    27    28   ar
    33    28    29   ar
    34    29    30   ar
    35    30    31    1
    36    16     6   ar
    37    30    25   ar
    38    22    17   ar
    39    15     9   ar
    40     3     4    1
@<TRIPOS>MOLECULE
*****
 37 40 0 0 0
SMALL
GASTEIGER

@<TRIPOS>ATOM
      1 C          62.6050   89.5693   11.7280 C.2     1  UNL1        0.2456
      2 O          61.2838   89.9974   11.1613 O.2     1  UNL1       -0.2702
      3 N          62.9567   88.1125   11.7926 N.am    1  UNL1       -0.3005
      4 H          63.8239   87.8315   12.1645 H       1  UNL1        0.1497
      5 C          63.9644   91.4184    9.7959 C.3     1  UNL1        0.0328
      6 C          64.2542   91.5224   11.2641 C.ar    1  UNL1        0.0002
      7 C          65.2237   92.5510   11.7661 C.ar    1  UNL1        0.0774
      8 N          65.5135   92.6551   13.2341 N.ar    1  UNL1       -0.2457
      9 C          64.8337   91.7306   14.2002 C.ar    1  UNL1        0.0814
     10 C          65.1235   91.8346   15.6682 C.ar    1  UNL1        0.0196
     11 C          64.4438   90.9101   16.6342 C.ar    1  UNL1        0.0082
     12 C          63.4743   89.8815   16.1322 C.ar    1  UNL1        0.0347
     13 BR         62.7945   88.9569   17.0982 Br      1  UNL1       -0.0490
     14 C          63.1845   89.7774   14.6641 C.ar    1  UNL1        0.0083
     15 C          63.8642   90.7019   13.6982 C.ar    1  UNL1        0.0222
     16 C          63.5745   90.5979   12.2300 C.ar    1  UNL1        0.0523
     17 C          65.9034   93.4756   10.8000 C.ar    1  UNL1        0.0173
     18 C          67.0723   92.9913    9.9945 C.ar    1  UNL1        0.0015
     19 C          67.7520   93.9158    9.0284 C.ar    1  UNL1        0.0000
     20 C          67.2627   95.3247    8.8680 C.ar    1  UNL1        0.0000
     21 C          66.0938   95.8090    9.6736 C.ar    1  UNL1        0.0000
     22 C          65.4141   94.8845   10.6396 C.ar    1  UNL1        0.0015
     23 C          61.9872   87.0839   11.2906 C.3     1  UNL1        0.0940
     24 C          62.4650   85.7009   10.9605 C.3     1  UNL1        0.0428
     25 C          62.9250   84.7851   12.0558 C.ar    1  UNL1       -0.0103
     26 C          62.4945   85.0331   13.4711 C.ar    1  UNL1       -0.0034
     27 C          62.9545   84.1172   14.5664 C.ar    1  UNL1       -0.0003
     28 C          63.8449   82.9533   14.2463 C.ar    1  UNL1        0.0008
     29 C          64.2753   82.7052   12.8309 C.ar    1  UNL1        0.0111
     30 C          63.8154   83.6211   11.7357 C.ar    1  UNL1        0.0537
     31 CL         64.2458   83.3730   10.3204 Cl      1  UNL1       -0.0826
     32 C          62.4829   85.2338    9.5352 C.3     1  UNL1        0.0065
     33 C          62.1182   86.1810    8.4309 C.3     1  UNL1        0.0063
     34 C          60.7766   86.0790    7.7677 C.3     1  UNL1        0.0417
     35 C          59.7296   87.1210    8.0291 C.2     1  UNL1        0.0503
     36 O          58.2761   86.7566    7.9632 O.co2   1  UNL1       -0.5492
     37 O          60.1363   88.5272    8.3564 O.co2   1  UNL1       -0.5492
@<TRIPOS>UNITY_ATOM_ATTR
36 1
charge -1
@<TRIPOS>BOND
     1     5     6    1
     2     6     7   ar
     3     7    17    1
     4    17    18   ar
     5    18    19   ar
     6    19    20   ar
     7    20    21   ar
     8    21    22   ar
     9     7     8   ar
    10     8     9   ar
    11     9    10   ar
    12    10    11   ar
    13    11    12   ar
    14    12    13    1
    15    12    14   ar
    16    14    15   ar
    17    15    16   ar
    18    16     1    1
    19     1     2    2
    20     1     3   am
    21     3    23    1
    22    23    24    1
    23    24    32    1
    24    32    33    1
    25    33    34    1
    26    34    35    1
    27    35    36   ar
    28    35    37   ar
    29    24    25    1
    30    25    26   ar
    31    26    27   ar
    32    27    28   ar
    33    28    29   ar
    34    29    30   ar
    35    30    31    1
    36    16     6   ar
    37    30    25   ar
    38    22    17   ar
    39    15     9   ar
    40     3     4    1
@<TRIPOS>MOLECULE
*****
 37 40 0 0 0
SMALL
GASTEIGER

@<TRIPOS>ATOM
      1 C          62.3911   89.9491   11.7153 C.2     1  UNL1        0.2456
      2 O          61.1044   90.5305   11.2092 O.2     1  UNL1       -0.2702
      3 N          62.5776   88.4612   11.7550 N.am    1  UNL1       -0.3005
      4 H          63.4221   88.0796   12.0872 H       1  UNL1        0.1497
      5 C          63.8219   91.7064    9.7494 C.3     1  UNL1        0.0328
      6 C          64.2068   91.7342   11.1990 C.ar    1  UNL1        0.0002
      7 C          65.3071   92.6406   11.6655 C.ar    1  UNL1        0.0774
      8 N          65.6921   92.6684   13.1150 N.ar    1  UNL1       -0.2457
      9 C          64.9766   91.7898   14.0980 C.ar    1  UNL1        0.0814
     10 C          65.3616   91.8176   15.5475 C.ar    1  UNL1        0.0196
     11 C          64.6462   90.9390   16.5304 C.ar    1  UNL1        0.0082
     12 C          63.5458   90.0325   16.0638 C.ar    1  UNL1        0.0347
     13 BR         62.8304   89.1539   17.0469 Br      1  UNL1       -0.0490
     14 C          63.1609   90.0047   14.6144 C.ar    1  UNL1        0.0083
     15 C          63.8763   90.8833   13.6314 C.ar    1  UNL1        0.0222
     16 C          63.4914   90.8555   12.1819 C.ar    1  UNL1        0.0523
     17 C          66.0225   93.5192   10.6825 C.ar    1  UNL1        0.0173
     18 C          67.1904   92.9831    9.9088 C.ar    1  UNL1        0.0015
     19 C          67.9057   93.8618    8.9258 C.ar    1  UNL1        0.0000
     20 C          67.4532   95.2765    8.7166 C.ar    1  UNL1        0.0000
     21 C          66.2854   95.8126    9.4903 C.ar    1  UNL1        0.0000
     22 C          65.5701   94.9340   10.4733 C.ar    1  UNL1        0.0015
     23 C          61.4773   87.5548   11.2884 C.3     1  UNL1        0.0940
     24 C          61.7887   86.1451   10.8815 C.3     1  UNL1        0.0428
     25 C          61.7163   85.7482    9.4368 C.ar    1  UNL1       -0.0103
     26 C          60.5579   86.1928    8.5939 C.ar    1  UNL1       -0.0034
     27 C          60.4856   85.7959    7.1492 C.ar    1  UNL1       -0.0003
     28 C          61.5717   84.9544    6.5473 C.ar    1  UNL1        0.0008
     29 C          62.7301   84.5097    7.3901 C.ar    1  UNL1        0.0111
     30 C          62.8024   84.9066    8.8348 C.ar    1  UNL1        0.0537
     31 CL         63.9609   84.4620    9.6777 Cl      1  UNL1       -0.0826
     32 C          62.1725   85.1322   11.9192 C.3     1  UNL1        0.0065
     33 C          63.5300   85.1872   12.5549 C.3     1  UNL1        0.0063
     34 C          63.6562   85.3305   14.0427 C.3     1  UNL1        0.0417
     35 C          62.9111   84.3986   14.9518 C.2     1  UNL1        0.0503
     36 O          63.4679   83.0384   15.2514 O.co2   1  UNL1       -0.5492
     37 O          61.6091   84.8270   15.5613 O.co2   1  UNL1       -0.5492
@<TRIPOS>UNITY_ATOM_ATTR
36 1
charge -1
@<TRIPOS>BOND
     1     5     6    1
     2     6     7   ar
     3     7    17    1
     4    17    18   ar
     5    18    19   ar
     6    19    20   ar
     7    20    21   ar
     8    21    22   ar
     9     7     8   ar
    10     8     9   ar
    11     9    10   ar
    12    10    11   ar
    13    11    12   ar
    14    12    13    1
    15    12    14   ar
    16    14    15   ar
    17    15    16   ar
    18    16     1    1
    19     1     2    2
    20     1     3   am
    21     3    23    1
    22    23    24    1
    23    24    32    1
    24    32    33    1
    25    33    34    1
    26    34    35    1
    27    35    36   ar
    28    35    37   ar
    29    24    25    1
    30    25    26   ar
    31    26    27   ar
    32    27    28   ar
    33    28    29   ar
    34    29    30   ar
    35    30    31    1
    36    16     6   ar
    37    30    25   ar
    38    22    17   ar
    39    15     9   ar
    40     3     4    1
@<TRIPOS>MOLECULE
*****
 37 40 0 0 0
SMALL
GASTEIGER

@<TRIPOS>ATOM
      1 C          63.0180   90.6187   10.7724 C.2     1  UNL1        0.2456
      2 O          63.5503   91.4521    9.6446 O.2     1  UNL1       -0.2702
      3 N          61.7913   89.7792   10.5706 N.am    1  UNL1       -0.3005
      4 H          61.4419   89.2322   11.3109 H       1  UNL1        0.1497
      5 C          62.4821   88.4311   12.7543 C.3     1  UNL1        0.0328
      6 C          63.4444   89.5309   13.0930 C.ar    1  UNL1        0.0002
      7 C          64.1386   89.5369   14.4226 C.ar    1  UNL1        0.0774
      8 N          65.1008   90.6366   14.7613 N.ar    1  UNL1       -0.2457
      9 C          65.3688   91.7304   13.7704 C.ar    1  UNL1        0.0814
     10 C          66.3310   92.8301   14.1092 C.ar    1  UNL1        0.0196
     11 C          66.5989   93.9239   13.1183 C.ar    1  UNL1        0.0082
     12 C          65.9046   93.9179   11.7886 C.ar    1  UNL1        0.0347
     13 BR         66.1725   95.0117   10.7977 Br      1  UNL1       -0.0490
     14 C          64.9424   92.8182   11.4499 C.ar    1  UNL1        0.0083
     15 C          64.6745   91.7245   12.4408 C.ar    1  UNL1        0.0222
     16 C          63.7123   90.6247   12.1021 C.ar    1  UNL1        0.0523
     17 C          63.8707   88.4431   15.4135 C.ar    1  UNL1        0.0173
     18 C          63.1478   88.7495   16.6916 C.ar    1  UNL1        0.0015
     19 C          62.8799   87.6557   17.6824 C.ar    1  UNL1        0.0000
     20 C          63.3349   86.2555   17.3952 C.ar    1  UNL1        0.0000
     21 C          64.0578   85.9491   16.1171 C.ar    1  UNL1        0.0000
     22 C          64.3257   87.0429   15.1263 C.ar    1  UNL1        0.0015
     23 C          61.0970   89.7733    9.2410 C.3     1  UNL1        0.0940
     24 C          60.7264   88.4716    8.5943 C.3     1  UNL1        0.0428
     25 C          61.3573   87.1944    9.0640 C.ar    1  UNL1       -0.0103
     26 C          62.3581   86.4893    8.1973 C.ar    1  UNL1       -0.0034
     27 C          62.9890   85.2120    8.6670 C.ar    1  UNL1       -0.0003
     28 C          62.6191   84.6399   10.0034 C.ar    1  UNL1        0.0008
     29 C          61.6182   85.3451   10.8700 C.ar    1  UNL1        0.0111
     30 C          60.9873   86.6223   10.4004 C.ar    1  UNL1        0.0537
     31 CL         59.9865   87.3275   11.2670 Cl      1  UNL1       -0.0826
     32 C          59.7249   88.4472    7.4779 C.3     1  UNL1        0.0065
     33 C          59.0413   89.7138    7.0557 C.3     1  UNL1        0.0063
     34 C          59.2718   90.2683    5.6812 C.3     1  UNL1        0.0417
     35 C          58.4183   91.3923    5.1729 C.2     1  UNL1        0.0503
     36 O          59.0597   92.6373    4.6357 O.co2   1  UNL1       -0.5492
     37 O          56.9235   91.2713    5.2020 O.co2   1  UNL1       -0.5492
@<TRIPOS>UNITY_ATOM_ATTR
36 1
charge -1
@<TRIPOS>BOND
     1     5     6    1
     2     6     7   ar
     3     7    17    1
     4    17    18   ar
     5    18    19   ar
     6    19    20   ar
     7    20    21   ar
     8    21    22   ar
     9     7     8   ar
    10     8     9   ar
    11     9    10   ar
    12    10    11   ar
    13    11    12   ar
    14    12    13    1
    15    12    14   ar
    16    14    15   ar
    17    15    16   ar
    18    16     1    1
    19     1     2    2
    20     1     3   am
    21     3    23    1
    22    23    24    1
    23    24    32    1
    24    32    33    1
    25    33    34    1
    26    34    35    1
    27    35    36   ar
    28    35    37   ar
    29    24    25    1
    30    25    26   ar
    31    26    27   ar
    32    27    28   ar
    33    28    29   ar
    34    29    30   ar
    35    30    31    1
    36    16     6   ar
    37    30    25   ar
    38    22    17   ar
    39    15     9   ar
    40     3     4    1
@<TRIPOS>MOLECULE
*****
 37 40 0 0 0
SMALL
GASTEIGER

@<TRIPOS>ATOM
      1 C          63.2371   86.0934   12.6835 C.2     1  UNL1        0.2456
      2 O          62.0858   85.2177   12.2867 O.2     1  UNL1       -0.2702
      3 N          64.4899   85.4806   13.2359 N.am    1  UNL1       -0.3005
      4 H          65.2456   86.0554   13.4964 H       1  UNL1        0.1497
      5 C          64.6670   87.9029   14.6022 C.3     1  UNL1        0.0328
      6 C          63.8507   88.4866   13.4872 C.ar    1  UNL1        0.0002
      7 C          63.7493   89.9751   13.3317 C.ar    1  UNL1        0.0774
      8 N          62.9331   90.5588   12.2168 N.ar    1  UNL1       -0.2457
      9 C          62.2182   89.6541   11.2574 C.ar    1  UNL1        0.0814
     10 C          61.4020   90.2378   10.1425 C.ar    1  UNL1        0.0196
     11 C          60.6871   89.3330    9.1832 C.ar    1  UNL1        0.0082
     12 C          60.7884   87.8446    9.3388 C.ar    1  UNL1        0.0347
     13 BR         60.0735   86.9398    8.3794 Br      1  UNL1       -0.0490
     14 C          61.6046   87.2608   10.4537 C.ar    1  UNL1        0.0083
     15 C          62.3195   88.1656   11.4130 C.ar    1  UNL1        0.0222
     16 C          63.1358   87.5819   12.5279 C.ar    1  UNL1        0.0523
     17 C          64.4643   90.8799   14.2910 C.ar    1  UNL1        0.0173
     18 C          65.7280   91.5701   13.8710 C.ar    1  UNL1        0.0015
     19 C          66.4429   92.4748   14.8304 C.ar    1  UNL1        0.0000
     20 C          65.8940   92.6893   16.2098 C.ar    1  UNL1        0.0000
     21 C          64.6303   91.9990   16.6298 C.ar    1  UNL1        0.0000
     22 C          63.9154   91.0943   15.6704 C.ar    1  UNL1        0.0015
     23 C          64.5912   83.9922   13.3915 C.3     1  UNL1        0.0940
     24 C          63.3560   83.1782   13.6396 C.3     1  UNL1        0.0428
     25 C          63.1085   81.9299   12.8456 C.ar    1  UNL1       -0.0103
     26 C          62.6260   80.6871   13.5331 C.ar    1  UNL1       -0.0034
     27 C          62.3785   79.4387   12.7390 C.ar    1  UNL1       -0.0003
     28 C          62.6135   79.4333   11.2576 C.ar    1  UNL1        0.0008
     29 C          63.0960   80.6761   10.5701 C.ar    1  UNL1        0.0111
     30 C          63.3435   81.9244   11.3641 C.ar    1  UNL1        0.0537
     31 CL         63.8260   83.1672   10.6766 Cl      1  UNL1       -0.0826
     32 C          62.3683   83.6125   14.6816 C.3     1  UNL1        0.0065
     33 C          62.8326   83.9139   16.0757 C.3     1  UNL1        0.0063
     34 C          63.2268   85.3122   16.4491 C.3     1  UNL1        0.0417
     35 C          62.3245   86.1396   17.3159 C.2     1  UNL1        0.0503
     36 O          62.8491   86.7404   18.5863 O.co2   1  UNL1       -0.5492
     37 O          60.8977   86.3662   16.9124 O.co2   1  UNL1       -0.5492
@<TRIPOS>UNITY_ATOM_ATTR
36 1
charge -1
@<TRIPOS>BOND
     1     5     6    1
     2     6     7   ar
     3     7    17    1
     4    17    18   ar
     5    18    19   ar
     6    19    20   ar
     7    20    21   ar
     8    21    22   ar
     9     7     8   ar
    10     8     9   ar
    11     9    10   ar
    12    10    11   ar
    13    11    12   ar
    14    12    13    1
    15    12    14   ar
    16    14    15   ar
    17    15    16   ar
    18    16     1    1
    19     1     2    2
    20     1     3   am
    21     3    23    1
    22    23    24    1
    23    24    32    1
    24    32    33    1
    25    33    34    1
    26    34    35    1
    27    35    36   ar
    28    35    37   ar
    29    24    25    1
    30    25    26   ar
    31    26    27   ar
    32    27    28   ar
    33    28    29   ar
    34    29    30   ar
    35    30    31    1
    36    16     6   ar
    37    30    25   ar
    38    22    17   ar
    39    15     9   ar
    40     3     4    1
