@<TRIPOS>MOLECULE
*****
 22 24 0 0 0
SMALL
GASTEIGER

@<TRIPOS>ATOM
      1 C          63.1439   90.5756   11.9739 C.ar    1  UNL1        0.0428
      2 C          63.4047   91.4744   10.8015 C.ar    1  UNL1        0.0077
      3 C          64.6573   92.2981   10.7520 C.ar    1  UNL1        0.0006
      4 C          65.6491   92.2232   11.8748 C.ar    1  UNL1        0.0013
      5 C          65.3883   91.3245   13.0472 C.ar    1  UNL1        0.0150
      6 C          64.1357   90.5007   13.0967 C.ar    1  UNL1        0.0540
      7 N          63.8749   89.6021   14.2690 N.pl3   1  UNL1       -0.3043
      8 C          63.2551   90.1578   15.5168 C.3     1  UNL1        0.1079
      9 C          62.9943   89.2591   16.6891 C.3     1  UNL1        0.0903
     10 N          63.3534   87.8047   16.6137 N.3     1  UNL1       -0.2946
     11 C          63.9732   87.2489   15.3659 C.3     1  UNL1        0.0903
     12 C          64.2340   88.1477   14.1935 C.3     1  UNL1        0.1079
     13 H          62.4933   87.2803   16.7739 H       1  UNL1        0.1233
     14 S          61.8913   89.7519   12.0234 S.3     1  UNL1       -0.0857
     15 C          60.7036   85.8316    7.6393 C.3     1  UNL1        0.0307
     16 C          61.0005   86.8117    8.7353 C.ar    1  UNL1       -0.0258
     17 C          61.9349   86.4341    9.8463 C.ar    1  UNL1       -0.0041
     18 C          62.2318   87.4141   10.9423 C.ar    1  UNL1        0.0061
     19 C          61.5944   88.7718   10.9274 C.ar    1  UNL1        0.0292
     20 C          60.6600   89.1494    9.8164 C.ar    1  UNL1        0.0019
     21 C          60.3630   88.1694    8.7204 C.ar    1  UNL1       -0.0253
     22 C          59.4286   88.5470    7.6094 C.3     1  UNL1        0.0307
@<TRIPOS>BOND
     1    15    16    1
     2    16    17   ar
     3    17    18   ar
     4    18    19   ar
     5    19    14    1
     6    14     1    1
     7     1     2   ar
     8     2     3   ar
     9     3     4   ar
    10     4     5   ar
    11     5     6   ar
    12     6     7    1
    13     7     8    1
    14     8     9    1
    15     9    10    1
    16    10    11    1
    17    11    12    1
    18    19    20   ar
    19    20    21   ar
    20    21    22    1
    21    21    16   ar
    22     6     1   ar
    23    12     7    1
    24    10    13    1
@<TRIPOS>MOLECULE
*****
 22 24 0 0 0
SMALL
GASTEIGER

@<TRIPOS>ATOM
      1 C          63.3612   82.5386   12.1778 C.ar    1  UNL1        0.0428
      2 C          63.1744   81.3029   11.3481 C.ar    1  UNL1        0.0077
      3 C          62.6617   80.0441   11.9823 C.ar    1  UNL1        0.0006
      4 C          62.3357   80.0207   13.4463 C.ar    1  UNL1        0.0013
      5 C          62.5226   81.2563   14.2760 C.ar    1  UNL1        0.0150
      6 C          63.0353   82.5152   13.6418 C.ar    1  UNL1        0.0540
      7 N          63.2221   83.7508   14.4715 N.pl3   1  UNL1       -0.3043
      8 C          64.4321   84.6140   14.2695 C.3     1  UNL1        0.1079
      9 C          64.6189   85.8496   15.0992 C.3     1  UNL1        0.0903
     10 N          63.5957   86.2219   16.1311 N.3     1  UNL1       -0.2946
     11 C          62.3858   85.3586   16.3331 C.3     1  UNL1        0.0903
     12 C          62.1990   84.1230   15.5033 C.3     1  UNL1        0.1079
     13 H          63.2562   87.1522   15.8868 H       1  UNL1        0.1233
     14 S          63.8740   83.7974   11.5436 S.3     1  UNL1       -0.0857
     15 C          60.3393   86.9605    7.8692 C.3     1  UNL1        0.0307
     16 C          61.2230   86.1698    8.7878 C.ar    1  UNL1       -0.0258
     17 C          61.1231   86.3600   10.2723 C.ar    1  UNL1       -0.0041
     18 C          62.0068   85.5692   11.1909 C.ar    1  UNL1        0.0061
     19 C          62.9903   84.5882   10.6250 C.ar    1  UNL1        0.0292
     20 C          63.0902   84.3980    9.1405 C.ar    1  UNL1        0.0019
     21 C          62.2065   85.1888    8.2219 C.ar    1  UNL1       -0.0253
     22 C          62.3064   84.9985    6.7373 C.3     1  UNL1        0.0307
@<TRIPOS>BOND
     1    15    16    1
     2    16    17   ar
     3    17    18   ar
     4    18    19   ar
     5    19    14    1
     6    14     1    1
     7     1     2   ar
     8     2     3   ar
     9     3     4   ar
    10     4     5   ar
    11     5     6   ar
    12     6     7    1
    13     7     8    1
    14     8     9    1
    15     9    10    1
    16    10    11    1
    17    11    12    1
    18    19    20   ar
    19    20    21   ar
    20    21    22    1
    21    21    16   ar
    22     6     1   ar
    23    12     7    1
    24    10    13    1
@<TRIPOS>MOLECULE
*****
 22 24 0 0 0
SMALL
GASTEIGER

@<TRIPOS>ATOM
      1 C          63.3693   82.6368   12.0098 C.ar    1  UNL1        0.0428
      2 C          63.1778   81.4345   11.1335 C.ar    1  UNL1        0.0077
      3 C          62.6424   80.1599   11.7154 C.ar    1  UNL1        0.0006
      4 C          62.2984   80.0875   13.1736 C.ar    1  UNL1        0.0013
      5 C          62.4899   81.2898   14.0499 C.ar    1  UNL1        0.0150
      6 C          63.0253   82.5644   13.4680 C.ar    1  UNL1        0.0540
      7 N          63.2168   83.7667   14.3443 N.pl3   1  UNL1       -0.3043
      8 C          62.1901   84.1088   15.3831 C.3     1  UNL1        0.1079
      9 C          62.3815   85.3110   16.2594 C.3     1  UNL1        0.0903
     10 N          63.5997   86.1712   16.0970 N.3     1  UNL1       -0.2946
     11 C          64.6263   85.8291   15.0583 C.3     1  UNL1        0.0903
     12 C          64.4348   84.6268   14.1819 C.3     1  UNL1        0.1079
     13 H          64.0805   86.1737   16.9966 H       1  UNL1        0.1233
     14 S          63.9047   83.9114   11.4279 S.3     1  UNL1       -0.0857
     15 C          60.3570   87.4026    8.0775 C.3     1  UNL1        0.0307
     16 C          61.2439   86.5298    8.9151 C.ar    1  UNL1       -0.0258
     17 C          62.1827   85.5629    8.2566 C.ar    1  UNL1       -0.0041
     18 C          63.0697   84.6901    9.0942 C.ar    1  UNL1        0.0061
     19 C          63.0178   84.7842   10.5903 C.ar    1  UNL1        0.0292
     20 C          62.0790   85.7511   11.2488 C.ar    1  UNL1        0.0019
     21 C          61.1920   86.6239   10.4112 C.ar    1  UNL1       -0.0253
     22 C          60.2532   87.5908   11.0698 C.3     1  UNL1        0.0307
@<TRIPOS>BOND
     1    15    16    1
     2    16    17   ar
     3    17    18   ar
     4    18    19   ar
     5    19    14    1
     6    14     1    1
     7     1     2   ar
     8     2     3   ar
     9     3     4   ar
    10     4     5   ar
    11     5     6   ar
    12     6     7    1
    13     7     8    1
    14     8     9    1
    15     9    10    1
    16    10    11    1
    17    11    12    1
    18    19    20   ar
    19    20    21   ar
    20    21    22    1
    21    21    16   ar
    22     6     1   ar
    23    12     7    1
    24    10    13    1
@<TRIPOS>MOLECULE
*****
 22 24 0 0 0
SMALL
GASTEIGER

@<TRIPOS>ATOM
      1 C          62.7149   85.2266   11.1899 C.ar    1  UNL1        0.0428
      2 C          62.8549   84.8311    9.7497 C.ar    1  UNL1        0.0077
      3 C          63.7233   83.6677    9.3724 C.ar    1  UNL1        0.0006
      4 C          64.4517   82.8998   10.4353 C.ar    1  UNL1        0.0013
      5 C          64.3118   83.2952   11.8754 C.ar    1  UNL1        0.0150
      6 C          63.4433   84.4586   12.2527 C.ar    1  UNL1        0.0540
      7 N          63.3034   84.8540   13.6929 N.pl3   1  UNL1       -0.3043
      8 C          64.1934   85.9150   14.2692 C.3     1  UNL1        0.1079
      9 C          64.0534   86.3104   15.7094 C.3     1  UNL1        0.0903
     10 N          63.0234   85.6449   16.5732 N.3     1  UNL1       -0.2946
     11 C          62.1334   84.5839   15.9968 C.3     1  UNL1        0.0903
     12 C          62.2734   84.1885   14.5566 C.3     1  UNL1        0.1079
     13 H          62.4128   86.3824   16.9247 H       1  UNL1        0.1233
     14 S          61.8465   86.3899   11.5672 S.3     1  UNL1       -0.0857
     15 C          63.7488   91.9955   10.5880 C.3     1  UNL1        0.0307
     16 C          63.2732   90.5941   10.8328 C.ar    1  UNL1       -0.0258
     17 C          62.5584   89.8444    9.7480 C.ar    1  UNL1       -0.0041
     18 C          62.0828   88.4430    9.9928 C.ar    1  UNL1        0.0061
     19 C          62.3221   87.7913   11.3224 C.ar    1  UNL1        0.0292
     20 C          63.0369   88.5410   12.4073 C.ar    1  UNL1        0.0019
     21 C          63.5125   89.9424   12.1625 C.ar    1  UNL1       -0.0253
     22 C          64.2273   90.6921   13.2474 C.3     1  UNL1        0.0307
@<TRIPOS>BOND
     1    15    16    1
     2    16    17   ar
     3    17    18   ar
     4    18    19   ar
     5    19    14    1
     6    14     1    1
     7     1     2   ar
     8     2     3   ar
     9     3     4   ar
    10     4     5   ar
    11     5     6   ar
    12     6     7    1
    13     7     8    1
    14     8     9    1
    15     9    10    1
    16    10    11    1
    17    11    12    1
    18    19    20   ar
    19    20    21   ar
    20    21    22    1
    21    21    16   ar
    22     6     1   ar
    23    12     7    1
    24    10    13    1
@<TRIPOS>MOLECULE
*****
 22 24 0 0 0
SMALL
GASTEIGER

@<TRIPOS>ATOM
      1 C          64.4329   91.4850   12.2517 C.ar    1  UNL1        0.0428
      2 C          63.8456   90.6613   13.3593 C.ar    1  UNL1        0.0077
      3 C          64.5221   90.6119   14.6971 C.ar    1  UNL1        0.0006
      4 C          65.7860   91.3862   14.9274 C.ar    1  UNL1        0.0013
      5 C          66.3734   92.2099   13.8200 C.ar    1  UNL1        0.0150
      6 C          65.6968   92.2593   12.4820 C.ar    1  UNL1        0.0540
      7 N          66.2842   93.0829   11.3746 N.pl3   1  UNL1       -0.3043
      8 C          67.2531   92.4632   10.4117 C.3     1  UNL1        0.1079
      9 C          67.8404   93.2869    9.3042 C.3     1  UNL1        0.0903
     10 N          67.4589   94.7304    9.1596 N.3     1  UNL1       -0.2946
     11 C          66.4900   95.3501   10.1225 C.3     1  UNL1        0.0903
     12 C          65.9026   94.5263   11.2300 C.3     1  UNL1        0.1079
     13 H          67.0571   94.8368    8.2281 H       1  UNL1        0.1233
     14 S          63.7564   91.5344   10.9139 S.3     1  UNL1       -0.0857
     15 C          59.4553   87.5697    9.5790 C.3     1  UNL1        0.0307
     16 C          60.5306   88.5609    9.9127 C.ar    1  UNL1       -0.0258
     17 C          60.1625   89.9421   10.3674 C.ar    1  UNL1       -0.0041
     18 C          61.2378   90.9332   10.7011 C.ar    1  UNL1        0.0061
     19 C          62.6811   90.5432   10.5801 C.ar    1  UNL1        0.0292
     20 C          63.0492   89.1620   10.1254 C.ar    1  UNL1        0.0019
     21 C          61.9739   88.1708    9.7917 C.ar    1  UNL1       -0.0253
     22 C          62.3420   86.7896    9.3370 C.3     1  UNL1        0.0307
@<TRIPOS>BOND
     1    15    16    1
     2    16    17   ar
     3    17    18   ar
     4    18    19   ar
     5    19    14    1
     6    14     1    1
     7     1     2   ar
     8     2     3   ar
     9     3     4   ar
    10     4     5   ar
    11     5     6   ar
    12     6     7    1
    13     7     8    1
    14     8     9    1
    15     9    10    1
    16    10    11    1
    17    11    12    1
    18    19    20   ar
    19    20    21   ar
    20    21    22    1
    21    21    16   ar
    22     6     1   ar
    23    12     7    1
    24    10    13    1
@<TRIPOS>MOLECULE
*****
 22 24 0 0 0
SMALL
GASTEIGER

@<TRIPOS>ATOM
      1 C          63.7721   90.9019   12.5838 C.ar    1  UNL1        0.0428
      2 C          64.2535   91.8628   11.5374 C.ar    1  UNL1        0.0077
      3 C          65.6128   92.4853   11.6593 C.ar    1  UNL1        0.0006
      4 C          66.4906   92.1469   12.8276 C.ar    1  UNL1        0.0013
      5 C          66.0092   91.1860   13.8739 C.ar    1  UNL1        0.0150
      6 C          64.6499   90.5634   13.7520 C.ar    1  UNL1        0.0540
      7 N          64.1685   89.6025   14.7984 N.pl3   1  UNL1       -0.3043
      8 C          63.4774   90.1156   16.0268 C.3     1  UNL1        0.1079
      9 C          62.9960   89.1547   17.0731 C.3     1  UNL1        0.0903
     10 N          63.2058   87.6806   16.8911 N.3     1  UNL1       -0.2946
     11 C          63.8969   87.1675   15.6626 C.3     1  UNL1        0.0903
     12 C          64.3783   88.1285   14.6163 C.3     1  UNL1        0.1079
     13 H          62.2828   87.2470   16.9124 H       1  UNL1        0.1233
     14 S          62.4128   90.2794   12.4619 S.3     1  UNL1       -0.0857
     15 C          61.3822   86.1239    8.2583 C.3     1  UNL1        0.0307
     16 C          61.6399   87.1628    9.3092 C.ar    1  UNL1       -0.0258
     17 C          61.3330   88.6042    9.0300 C.ar    1  UNL1       -0.0041
     18 C          61.5906   89.6431   10.0809 C.ar    1  UNL1        0.0061
     19 C          62.1552   89.2405   11.4110 C.ar    1  UNL1        0.0292
     20 C          62.4620   87.7991   11.6902 C.ar    1  UNL1        0.0019
     21 C          62.2044   86.7602   10.6393 C.ar    1  UNL1       -0.0253
     22 C          62.5113   85.3187   10.9186 C.3     1  UNL1        0.0307
@<TRIPOS>BOND
     1    15    16    1
     2    16    17   ar
     3    17    18   ar
     4    18    19   ar
     5    19    14    1
     6    14     1    1
     7     1     2   ar
     8     2     3   ar
     9     3     4   ar
    10     4     5   ar
    11     5     6   ar
    12     6     7    1
    13     7     8    1
    14     8     9    1
    15     9    10    1
    16    10    11    1
    17    11    12    1
    18    19    20   ar
    19    20    21   ar
    20    21    22    1
    21    21    16   ar
    22     6     1   ar
    23    12     7    1
    24    10    13    1
@<TRIPOS>MOLECULE
*****
 22 24 0 0 0
SMALL
GASTEIGER

@<TRIPOS>ATOM
      1 C          62.4315   86.2411   10.8112 C.ar    1  UNL1        0.0428
      2 C          62.3799   86.2582    9.3121 C.ar    1  UNL1        0.0077
      3 C          62.9258   85.1009    8.5296 C.ar    1  UNL1        0.0006
      4 C          63.5234   83.9263    9.2460 C.ar    1  UNL1        0.0013
      5 C          63.5751   83.9091   10.7450 C.ar    1  UNL1        0.0150
      6 C          63.0291   85.0665   11.5276 C.ar    1  UNL1        0.0540
      7 N          63.0808   85.0493   13.0266 N.pl3   1  UNL1       -0.3043
      8 C          64.0710   85.9107   13.7529 C.3     1  UNL1        0.1079
      9 C          64.1227   85.8934   15.2519 C.3     1  UNL1        0.0903
     10 N          63.1841   85.0148   16.0246 N.3     1  UNL1       -0.2946
     11 C          62.1939   84.1534   15.2984 C.3     1  UNL1        0.0903
     12 C          62.1422   84.1707   13.7993 C.3     1  UNL1        0.1079
     13 H          62.6471   85.6264   16.6395 H       1  UNL1        0.1233
     14 S          61.8856   87.3984   11.5938 S.3     1  UNL1       -0.0857
     15 C          64.8150   92.6344   11.6440 C.3     1  UNL1        0.0307
     16 C          64.0827   91.3254   11.6314 C.ar    1  UNL1       -0.0258
     17 C          63.2840   90.9244   10.4268 C.ar    1  UNL1       -0.0041
     18 C          62.5516   89.6154   10.4142 C.ar    1  UNL1        0.0061
     19 C          62.6180   88.7074   11.6063 C.ar    1  UNL1        0.0292
     20 C          63.4167   89.1084   12.8109 C.ar    1  UNL1        0.0019
     21 C          64.1490   90.4175   12.8235 C.ar    1  UNL1       -0.0253
     22 C          64.9478   90.8185   14.0282 C.3     1  UNL1        0.0307
@<TRIPOS>BOND
     1    15    16    1
     2    16    17   ar
     3    17    18   ar
     4    18    19   ar
     5    19    14    1
     6    14     1    1
     7     1     2   ar
     8     2     3   ar
     9     3     4   ar
    10     4     5   ar
    11     5     6   ar
    12     6     7    1
    13     7     8    1
    14     8     9    1
    15     9    10    1
    16    10    11    1
    17    11    12    1
    18    19    20   ar
    19    20    21   ar
    20    21    22    1
    21    21    16   ar
    22     6     1   ar
    23    12     7    1
    24    10    13    1
@<TRIPOS>MOLECULE
*****
 22 24 0 0 0
SMALL
GASTEIGER

@<TRIPOS>ATOM
      1 C          61.1521   88.0134   10.1329 C.ar    1  UNL1        0.0428
      2 C          60.3158   89.0642    9.4647 C.ar    1  UNL1        0.0077
      3 C          59.6187   88.7582    8.1723 C.ar    1  UNL1        0.0006
      4 C          59.7578   87.4013    7.5481 C.ar    1  UNL1        0.0013
      5 C          60.5940   86.3505    8.2162 C.ar    1  UNL1        0.0150
      6 C          61.2912   86.6565    9.5087 C.ar    1  UNL1        0.0540
      7 N          62.1274   85.6057   10.1769 N.pl3   1  UNL1       -0.3043
      8 C          63.0835   84.7810    9.3671 C.3     1  UNL1        0.1079
      9 C          63.9197   83.7302   10.0352 C.3     1  UNL1        0.0903
     10 N          63.7999   83.5041   11.5133 N.3     1  UNL1       -0.2946
     11 C          62.8438   84.3288   12.3231 C.3     1  UNL1        0.0903
     12 C          62.0076   85.3796   11.6548 C.3     1  UNL1        0.1079
     13 H          64.7274   83.6540   11.9103 H       1  UNL1        0.1233
     14 S          61.8492   88.3194   11.4253 S.3     1  UNL1       -0.0857
     15 C          65.5068   93.0599   11.8118 C.3     1  UNL1        0.0307
     16 C          64.5924   91.8748   11.7152 C.ar    1  UNL1       -0.0258
     17 C          63.8478   91.6039   10.4416 C.ar    1  UNL1       -0.0041
     18 C          62.9334   90.4188   10.3450 C.ar    1  UNL1        0.0061
     19 C          62.7636   89.5045   11.5219 C.ar    1  UNL1        0.0292
     20 C          63.5083   89.7754   12.7955 C.ar    1  UNL1        0.0019
     21 C          64.4227   90.9605   12.8921 C.ar    1  UNL1       -0.0253
     22 C          65.1674   91.2314   14.1658 C.3     1  UNL1        0.0307
@<TRIPOS>BOND
     1    15    16    1
     2    16    17   ar
     3    17    18   ar
     4    18    19   ar
     5    19    14    1
     6    14     1    1
     7     1     2   ar
     8     2     3   ar
     9     3     4   ar
    10     4     5   ar
    11     5     6   ar
    12     6     7    1
    13     7     8    1
    14     8     9    1
    15     9    10    1
    16    10    11    1
    17    11    12    1
    18    19    20   ar
    19    20    21   ar
    20    21    22    1
    21    21    16   ar
    22     6     1   ar
    23    12     7    1
    24    10    13    1
@<TRIPOS>MOLECULE
*****
 22 24 0 0 0
SMALL
GASTEIGER

@<TRIPOS>ATOM
      1 C          62.9422   85.8221   12.5010 C.ar    1  UNL1        0.0428
      2 C          63.1880   87.3014   12.5353 C.ar    1  UNL1        0.0077
      3 C          63.9582   87.9076   13.6708 C.ar    1  UNL1        0.0006
      4 C          64.4827   87.0345   14.7719 C.ar    1  UNL1        0.0013
      5 C          64.2369   85.5552   14.7377 C.ar    1  UNL1        0.0150
      6 C          63.4667   84.9489   13.6022 C.ar    1  UNL1        0.0540
      7 N          63.2210   83.4696   13.5680 N.pl3   1  UNL1       -0.3043
      8 C          64.1230   82.5779   12.7673 C.3     1  UNL1        0.1079
      9 C          63.8773   81.0985   12.7330 C.3     1  UNL1        0.0903
     10 N          62.7295   80.5109   13.4995 N.3     1  UNL1       -0.2946
     11 C          61.8274   81.4027   14.3001 C.3     1  UNL1        0.0903
     12 C          62.0732   82.8821   14.3344 C.3     1  UNL1        0.1079
     13 H          63.1262   79.8329   14.1500 H       1  UNL1        0.1233
     14 S          62.1720   85.2159   11.3656 S.3     1  UNL1       -0.0857
     15 C          59.4156   88.7561    7.3820 C.3     1  UNL1        0.0307
     16 C          60.1047   87.8710    8.3779 C.ar    1  UNL1       -0.0258
     17 C          60.5000   86.4759    7.9942 C.ar    1  UNL1       -0.0041
     18 C          61.1891   85.5909    8.9900 C.ar    1  UNL1        0.0061
     19 C          61.4829   86.1009   10.3697 C.ar    1  UNL1        0.0292
     20 C          61.0876   87.4960   10.7534 C.ar    1  UNL1        0.0019
     21 C          60.3985   88.3811    9.7576 C.ar    1  UNL1       -0.0253
     22 C          60.0032   89.7763   10.1414 C.3     1  UNL1        0.0307
@<TRIPOS>BOND
     1    15    16    1
     2    16    17   ar
     3    17    18   ar
     4    18    19   ar
     5    19    14    1
     6    14     1    1
     7     1     2   ar
     8     2     3   ar
     9     3     4   ar
    10     4     5   ar
    11     5     6   ar
    12     6     7    1
    13     7     8    1
    14     8     9    1
    15     9    10    1
    16    10    11    1
    17    11    12    1
    18    19    20   ar
    19    20    21   ar
    20    21    22    1
    21    21    16   ar
    22     6     1   ar
    23    12     7    1
    24    10    13    1
