@<TRIPOS>MOLECULE
*****
 38 41 0 0 0
SMALL
GASTEIGER

@<TRIPOS>ATOM
      1 C          63.9572   89.8417   12.1294 C.ar    1  UNL1       -0.0223
      2 C          64.2318   89.0731   13.3878 C.ar    1  UNL1       -0.0030
      3 C          63.7022   87.6786   13.5456 C.ar    1  UNL1        0.0143
      4 C          62.8980   87.0527   12.4450 C.ar    1  UNL1        0.0502
      5 C          62.6234   87.8213   11.1865 C.ar    1  UNL1        0.0089
      6 C          63.1530   89.2158   11.0287 C.ar    1  UNL1       -0.0034
      7 C          66.0755   95.4197   11.4982 C.2     1  UNL1        0.2379
      8 O          66.6274   96.1512   12.6857 O.2     1  UNL1       -0.2735
      9 N          65.5459   94.0252   11.6560 N.am    1  UNL1       -0.2785
     10 C          64.9939   93.2937   10.4685 C.3     1  UNL1        0.0938
     11 C          64.4644   91.8992   10.6263 C.3     1  UNL1        0.0259
     12 C          64.4867   91.2362   11.9716 C.3     1  UNL1        0.0257
     13 C          65.0387   91.9677   13.1591 C.3     1  UNL1        0.0259
     14 C          65.5683   93.3622   13.0013 C.3     1  UNL1        0.0938
     15 C          67.2742   95.3095    9.7515 C.3     1  UNL1        0.0249
     16 C          66.0531   96.0827   10.1529 C.3     1  UNL1        0.1089
     17 C          64.8320   96.8559   10.5543 C.3     1  UNL1        0.0249
     18 N          66.0308   96.7457    8.8075 N.3     1  UNL1       -0.3164
     19 H          65.2428   97.3917    8.7599 H       1  UNL1        0.1192
     20 H          65.9336   96.0368    8.0806 H       1  UNL1        0.1192
     21 C          61.8192   87.1954   10.0858 C.2     1  UNL1       -0.0253
     22 C          60.3701   87.5469    9.9226 C.2     1  UNL1       -0.0303
     23 C          59.5659   86.9211    8.8220 C.3     1  UNL1        0.0257
     24 C          60.2107   85.9437    7.8844 C.3     1  UNL1        0.0050
     25 C          61.6598   85.5922    8.0475 C.3     1  UNL1        0.0050
     26 C          62.4640   86.2181    9.1482 C.3     1  UNL1        0.0261
     27 N          62.3684   85.6582   12.6028 N.am    1  UNL1       -0.2779
     28 C          63.2568   84.5747   13.1384 C.2     1  UNL1        0.2837
     29 O          64.6747   84.8857   13.5162 O.2     1  UNL1       -0.2665
     30 H          61.4378   85.4540   12.3548 H       1  UNL1        0.1553
     31 C          62.7272   83.1802   13.2962 C.ar    1  UNL1        0.1959
     32 N          61.3751   82.8053   13.8264 N.ar    1  UNL1       -0.2123
     33 C          61.2690   81.3091   13.8094 C.ar    1  UNL1        0.1678
     34 C          62.5555   80.7593   13.2686 C.ar    1  UNL1        0.1036
     35 N          63.4568   81.9157   12.9514 N.ar    1  UNL1       -0.3319
     36 H          64.3673   81.8553   12.5818 H       1  UNL1        0.1676
     37 C          60.0844   80.5041   14.2549 C.1     1  UNL1        0.1214
     38 N          58.8998   79.6989   14.7004 N.1     1  UNL1       -0.1892
@<TRIPOS>BOND
     1    15    16    1
     2    16    17    1
     3    16    18    1
     4    16     7    1
     5     7     8    2
     6     7     9   am
     7     9    10    1
     8    10    11    1
     9    11    12    1
    10    12     1    1
    11     1     2   ar
    12     2     3   ar
    13     3     4   ar
    14     4    27    1
    15    27    28   am
    16    28    29    2
    17    28    31    1
    18    31    32   ar
    19    32    33   ar
    20    33    37    1
    21    37    38    3
    22    33    34   ar
    23    34    35   ar
    24     4     5   ar
    25     5    21    1
    26    21    22    2
    27    22    23    1
    28    23    24    1
    29    24    25    1
    30    25    26    1
    31     5     6   ar
    32    12    13    1
    33    13    14    1
    34    14     9    1
    35     6     1   ar
    36    35    31   ar
    37    26    21    1
    38    18    19    1
    39    18    20    1
    40    27    30    1
    41    35    36    1
