@<TRIPOS>MOLECULE
*****
 58 61 0 0 0
SMALL
GASTEIGER

@<TRIPOS>ATOM
      1 C          63.1631   85.1637   12.5589 C.3     1  UNL1        0.1041
      2 C          63.8981   86.2803   14.7867 C.2     1  UNL1        0.2405
      3 O          65.3363   86.0544   14.4255 O.2     1  UNL1       -0.2733
      4 N          62.8115   85.8350   13.8534 N.am    1  UNL1       -0.3019
      5 H          61.8675   85.9833   14.0905 H       1  UNL1        0.1495
      6 C          63.5465   86.9517   16.0812 C.3     1  UNL1        0.1510
      7 C          63.0204   89.4716   16.4325 C.2     1  UNL1        0.4023
      8 O          61.5587   89.1928   16.2429 O.2     1  UNL1       -0.2264
      9 N          64.0143   88.3510   16.3516 N.am    1  UNL1       -0.2640
     10 H          64.9736   88.5340   16.4760 H       1  UNL1        0.1532
     11 O          63.4881   90.8709   16.7029 O.3     1  UNL1       -0.4291
     12 C          64.0780   91.6918   15.5947 C.3     1  UNL1        0.2447
     13 C          67.8923   92.4104   15.6208 C.ar    1  UNL1        0.0881
     14 N          67.8194   91.2666   14.6530 N.ar    1  UNL1       -0.2414
     15 C          66.3817   90.8583   14.5255 C.ar    1  UNL1        0.1048
     16 C          65.5660   91.7496   15.4144 C.ar    1  UNL1        0.0710
     17 S          66.4996   92.7089   16.0914 S.2     1  UNL1       -0.0715
     18 C          69.1666   94.6288   16.0729 C.3     1  UNL1        0.0073
     19 C          69.1389   93.1294   16.0438 C.3     1  UNL1        0.0526
     20 C          62.7271   86.2237   17.1052 C.3     1  UNL1        0.0270
     21 C          62.6681   86.7295   18.5161 C.3     1  UNL1        0.0022
     22 C          61.9669   84.9899   16.7183 C.3     1  UNL1        0.0022
     23 C          62.7468   85.7809   11.2567 C.3     1  UNL1        0.1445
     24 O          62.9757   85.0441    9.9703 O.3     1  UNL1       -0.3813
     25 H          63.3988   84.1914   10.1570 H       1  UNL1        0.2105
     26 C          62.1015   87.1349   11.2408 C.3     1  UNL1        0.1038
     27 N          61.2223   87.5332   10.0927 N.3     1  UNL1       -0.2620
     28 C          60.5299   86.4811    9.2780 C.3     1  UNL1        0.0901
     29 C          59.6507   86.8795    8.1298 C.3     1  UNL1        0.0899
     30 N          59.4638   88.3299    7.7963 N.3     1  UNL1       -0.2661
     31 C          60.1562   89.3821    8.6110 C.3     1  UNL1        0.0980
     32 C          61.0353   88.9837    9.7592 C.3     1  UNL1        0.1510
     33 C          61.7277   90.0358   10.5739 C.2     1  UNL1        0.2383
     34 O          60.9383   90.8934   11.5181 O.2     1  UNL1       -0.2736
     35 N          63.2093   90.2304   10.4444 N.am    1  UNL1       -0.3063
     36 H          63.7274   89.6675    9.8247 H       1  UNL1        0.1493
     37 C          63.9017   91.2825   11.2591 C.3     1  UNL1        0.0569
     38 C          63.7579   90.4286   12.4840 C.3     1  UNL1        0.0196
     39 C          64.0454   92.1363   10.0343 C.3     1  UNL1        0.0196
     40 C          64.5940   92.3346   12.0738 C.3     1  UNL1        0.0196
     41 C          58.5846   88.7283    6.6482 C.3     1  UNL1        0.0993
     42 C          58.9225   89.9390    5.8297 C.ar    1  UNL1       -0.0029
     43 C          57.8405   90.8945    5.4219 C.ar    1  UNL1        0.0004
     44 C          58.1784   92.1053    4.6034 C.ar    1  UNL1        0.0398
     45 C          59.5982   92.3605    4.1926 C.ar    1  UNL1        0.1724
     46 C          60.6803   91.4050    4.6004 C.ar    1  UNL1        0.1721
     47 C          60.3424   90.1943    5.4189 C.ar    1  UNL1        0.0371
     48 O          59.9361   93.5712    3.3741 O.3     1  UNL1       -0.4684
     49 C          60.1778   93.4364    1.8999 C.3     1  UNL1        0.2526
     50 O          62.1002   91.6602    4.1896 O.3     1  UNL1       -0.4684
     51 C          62.7987   90.7025    3.2704 C.3     1  UNL1        0.2526
     52 C          63.9310   83.8752   12.5666 C.3     1  UNL1        0.0484
     53 C          63.2276   82.5846   12.8661 C.ar    1  UNL1       -0.0204
     54 C          63.4151   81.4013   11.9636 C.ar    1  UNL1       -0.0042
     55 C          62.7117   80.1108   12.2631 C.ar    1  UNL1       -0.0003
     56 C          61.8208   80.0036   13.4650 C.ar    1  UNL1       -0.0000
     57 C          61.6332   81.1869   14.3675 C.ar    1  UNL1       -0.0003
     58 C          62.3366   82.4774   14.0680 C.ar    1  UNL1       -0.0042
@<TRIPOS>BOND
     1    18    19    1
     2    19    13    1
     3    13    14   ar
     4    14    15   ar
     5    15    16   ar
     6    16    12    1
     7    12    11    1
     8    11     7    1
     9     7     8    2
    10     7     9   am
    11     6     9    1
    12     6     2    1
    13     2     3    2
    14     2     4   am
    15     4     1    1
    16     1    52    1
    17    52    53    1
    18    53    54   ar
    19    54    55   ar
    20    55    56   ar
    21    56    57   ar
    22    57    58   ar
    23     1    23    1
    24    23    24    1
    25    23    26    1
    26    26    27    1
    27    27    28    1
    28    28    29    1
    29    29    30    1
    30    30    41    1
    31    41    42    1
    32    42    43   ar
    33    43    44   ar
    34    44    45   ar
    35    45    48    1
    36    48    49    1
    37    45    46   ar
    38    46    50    1
    39    50    51    1
    40    46    47   ar
    41    30    31    1
    42    31    32    1
    43    32    33    1
    44    33    34    2
    45    33    35   am
    46    35    37    1
    47    37    38    1
    48    37    39    1
    49    37    40    1
    50     6    20    1
    51    20    21    1
    52    20    22    1
    53    16    17   ar
    54    17    13   ar
    55    58    53   ar
    56    32    27    1
    57    47    42   ar
    58     9    10    1
    59     4     5    1
    60    24    25    1
    61    35    36    1
@<TRIPOS>MOLECULE
*****
 58 61 0 0 0
SMALL
GASTEIGER

@<TRIPOS>ATOM
      1 C          62.8297   85.7425   11.8457 C.3     1  UNL1        0.1041
      2 C          63.8023   86.4645   14.1442 C.2     1  UNL1        0.2405
      3 O          64.9892   85.5748   13.9214 O.2     1  UNL1       -0.2733
      4 N          62.7225   86.5484   13.1063 N.am    1  UNL1       -0.3019
      5 H          61.9435   87.1323   13.2525 H       1  UNL1        0.1495
      6 C          63.6951   87.2704   15.4047 C.3     1  UNL1        0.1510
      7 C          63.1429   89.8001   15.6182 C.2     1  UNL1        0.4023
      8 O          61.6914   89.4680   15.7998 O.2     1  UNL1       -0.2264
      9 N          64.1447   88.7013   15.4206 N.am    1  UNL1       -0.2640
     10 H          65.0974   88.9193   15.3014 H       1  UNL1        0.1532
     11 O          63.5925   91.2310   15.6341 O.3     1  UNL1       -0.4291
     12 C          64.8624   91.6104   16.3365 C.3     1  UNL1        0.2447
     13 C          67.7978   92.0133   13.8291 C.ar    1  UNL1        0.0881
     14 N          68.0914   93.1192   14.7992 N.ar    1  UNL1       -0.2414
     15 C          67.0276   93.1028   15.8565 C.ar    1  UNL1        0.1048
     16 C          66.0765   91.9869   15.5399 C.ar    1  UNL1        0.0710
     17 S          66.5525   91.3136   14.2869 S.2     1  UNL1       -0.0715
     18 C          68.1153   92.0528   11.2508 C.3     1  UNL1        0.0073
     19 C          68.6074   91.6679   12.6145 C.3     1  UNL1        0.0526
     20 C          63.1382   86.6453   16.6494 C.3     1  UNL1        0.0270
     21 C          62.6372   85.2318   16.6193 C.3     1  UNL1        0.0022
     22 C          63.0824   87.4338   17.9242 C.3     1  UNL1        0.0022
     23 C          62.0926   86.1762   10.6133 C.3     1  UNL1        0.1445
     24 O          62.6088   85.7949    9.2575 O.3     1  UNL1       -0.3813
     25 H          63.4206   85.2732    9.3556 H       1  UNL1        0.2105
     26 C          60.8393   86.9911   10.7368 C.3     1  UNL1        0.1038
     27 N          60.2960   87.7169    9.5419 N.3     1  UNL1       -0.2620
     28 C          59.5089   86.9712    8.5053 C.3     1  UNL1        0.0901
     29 C          58.9656   87.6972    7.3103 C.3     1  UNL1        0.0899
     30 N          59.2093   89.1687    7.1520 N.3     1  UNL1       -0.2661
     31 C          59.9963   89.9144    8.1886 C.3     1  UNL1        0.0980
     32 C          60.5397   89.1885    9.3835 C.3     1  UNL1        0.1510
     33 C          61.3267   89.9342   10.4201 C.2     1  UNL1        0.2383
     34 O          60.6313   90.5150   11.6156 O.2     1  UNL1       -0.2736
     35 N          62.8091   90.0991   10.2612 N.am    1  UNL1       -0.3063
     36 H          63.2655   89.7179    9.4765 H       1  UNL1        0.1493
     37 C          63.5962   90.8448   11.2977 C.3     1  UNL1        0.0569
     38 C          63.3863   89.7193   12.2668 C.3     1  UNL1        0.0196
     39 C          63.8061   91.9704   10.3287 C.3     1  UNL1        0.0196
     40 C          64.3833   91.5905   12.3343 C.3     1  UNL1        0.0196
     41 C          58.6659   89.8946    5.9571 C.3     1  UNL1        0.0993
     42 C          59.5860   90.6942    5.0830 C.ar    1  UNL1       -0.0029
     43 C          61.0561   90.3965    5.0709 C.ar    1  UNL1        0.0004
     44 C          61.9761   91.1961    4.1968 C.ar    1  UNL1        0.0398
     45 C          61.4261   92.2934    3.3347 C.ar    1  UNL1        0.1724
     46 C          59.9559   92.5912    3.3467 C.ar    1  UNL1        0.1721
     47 C          59.0359   91.7916    4.2208 C.ar    1  UNL1        0.0371
     48 O          62.3462   93.0930    2.4606 O.3     1  UNL1       -0.4684
     49 C          63.6308   92.4904    1.9744 C.3     1  UNL1        0.2526
     50 O          59.4059   93.6885    2.4846 O.3     1  UNL1       -0.4684
     51 C          59.3907   93.5340    0.9926 C.3     1  UNL1        0.2526
     52 C          63.6740   84.5030   11.8174 C.3     1  UNL1        0.0484
     53 C          63.1250   83.2094   12.3422 C.ar    1  UNL1       -0.0204
     54 C          62.4664   83.1657   13.6892 C.ar    1  UNL1       -0.0042
     55 C          61.9175   81.8722   14.2139 C.ar    1  UNL1       -0.0003
     56 C          62.0271   80.6224   13.3917 C.ar    1  UNL1       -0.0000
     57 C          62.6856   80.6661   12.0447 C.ar    1  UNL1       -0.0003
     58 C          63.2346   81.9597   11.5200 C.ar    1  UNL1       -0.0042
@<TRIPOS>BOND
     1    18    19    1
     2    19    13    1
     3    13    14   ar
     4    14    15   ar
     5    15    16   ar
     6    16    12    1
     7    12    11    1
     8    11     7    1
     9     7     8    2
    10     7     9   am
    11     6     9    1
    12     6     2    1
    13     2     3    2
    14     2     4   am
    15     4     1    1
    16     1    52    1
    17    52    53    1
    18    53    54   ar
    19    54    55   ar
    20    55    56   ar
    21    56    57   ar
    22    57    58   ar
    23     1    23    1
    24    23    24    1
    25    23    26    1
    26    26    27    1
    27    27    28    1
    28    28    29    1
    29    29    30    1
    30    30    41    1
    31    41    42    1
    32    42    43   ar
    33    43    44   ar
    34    44    45   ar
    35    45    48    1
    36    48    49    1
    37    45    46   ar
    38    46    50    1
    39    50    51    1
    40    46    47   ar
    41    30    31    1
    42    31    32    1
    43    32    33    1
    44    33    34    2
    45    33    35   am
    46    35    37    1
    47    37    38    1
    48    37    39    1
    49    37    40    1
    50     6    20    1
    51    20    21    1
    52    20    22    1
    53    16    17   ar
    54    17    13   ar
    55    58    53   ar
    56    32    27    1
    57    47    42   ar
    58     9    10    1
    59     4     5    1
    60    24    25    1
    61    35    36    1
@<TRIPOS>MOLECULE
*****
 58 61 0 0 0
SMALL
GASTEIGER

@<TRIPOS>ATOM
      1 C          63.4760   85.9575   13.5037 C.3     1  UNL1        0.1041
      2 C          62.2797   86.2465   11.2155 C.2     1  UNL1        0.2405
      3 O          60.9703   86.4317   11.9235 O.2     1  UNL1       -0.2733
      4 N          63.5326   86.0093   12.0056 N.am    1  UNL1       -0.3019
      5 H          64.3920   85.8877   11.5410 H       1  UNL1        0.1495
      6 C          62.3363   86.2983    9.7175 C.3     1  UNL1        0.1510
      7 C          60.5353   87.8076    8.6090 C.2     1  UNL1        0.4023
      8 O          59.4807   86.7946    8.9433 O.2     1  UNL1       -0.2264
      9 N          61.9631   87.5595    8.9961 N.am    1  UNL1       -0.2640
     10 H          62.6553   88.2243    8.7767 H       1  UNL1        0.1532
     11 O          60.1621   89.0687    7.8876 O.3     1  UNL1       -0.4291
     12 C          59.1838   89.0214    6.7516 C.3     1  UNL1        0.2447
     13 C          59.4458   92.0683    4.3613 C.ar    1  UNL1        0.0881
     14 N          57.9784   92.0692    4.6723 N.ar    1  UNL1       -0.2414
     15 C          57.7017   90.9280    5.6055 C.ar    1  UNL1        0.1048
     16 C          58.9980   90.2217    5.8713 C.ar    1  UNL1        0.0710
     17 S          60.0760   90.9265    5.1023 S.2     1  UNL1       -0.0715
     18 C          59.9917   92.9480    1.9784 C.3     1  UNL1        0.0073
     19 C          60.1581   93.0388    3.4664 C.3     1  UNL1        0.0526
     20 C          62.7660   85.0892    8.9409 C.3     1  UNL1        0.0270
     21 C          63.4909   83.9725    9.6320 C.3     1  UNL1        0.0022
     22 C          62.4709   84.9966    7.4732 C.3     1  UNL1        0.0022
     23 C          64.1363   87.0312   14.3168 C.3     1  UNL1        0.1445
     24 O          65.4582   86.7677   14.9748 O.3     1  UNL1       -0.3813
     25 H          65.7436   85.8622   14.7759 H       1  UNL1        0.2105
     26 C          63.4747   88.3684   14.4718 C.3     1  UNL1        0.1038
     27 N          64.2411   89.6232   14.1752 N.3     1  UNL1       -0.2620
     28 C          65.4148   90.0045   15.0278 C.3     1  UNL1        0.0901
     29 C          66.1812   91.2594   14.7311 C.3     1  UNL1        0.0899
     30 N          65.7739   92.1329   13.5818 N.3     1  UNL1       -0.2661
     31 C          64.6002   91.7517   12.7291 C.3     1  UNL1        0.0980
     32 C          63.8338   90.4968   13.0258 C.3     1  UNL1        0.1510
     33 C          62.6600   90.1156   12.1731 C.2     1  UNL1        0.2383
     34 O          62.8795   89.6063   10.7794 O.2     1  UNL1       -0.2736
     35 N          61.2669   90.2436   12.7142 N.am    1  UNL1       -0.3063
     36 H          61.1229   90.5778   13.6289 H       1  UNL1        0.1493
     37 C          60.0932   89.8623   11.8615 C.3     1  UNL1        0.0569
     38 C          60.6113   90.7359   10.7577 C.3     1  UNL1        0.0196
     39 C          59.5751   88.9887   12.9654 C.3     1  UNL1        0.0196
     40 C          58.9195   89.4810   11.0089 C.3     1  UNL1        0.0196
     41 C          66.5403   93.3877   13.2851 C.3     1  UNL1        0.0993
     42 C          66.5470   93.9515   11.8951 C.ar    1  UNL1       -0.0029
     43 C          65.7839   95.2066   11.5911 C.ar    1  UNL1        0.0004
     44 C          65.7907   95.7704   10.2011 C.ar    1  UNL1        0.0398
     45 C          66.5605   95.0791    9.1151 C.ar    1  UNL1        0.1724
     46 C          67.3237   93.8240    9.4191 C.ar    1  UNL1        0.1721
     47 C          67.3169   93.2602   10.8091 C.ar    1  UNL1        0.0371
     48 O          66.5673   95.6429    7.7251 O.3     1  UNL1       -0.4684
     49 C          65.6096   96.7363    7.3546 C.3     1  UNL1        0.2526
     50 O          68.0936   93.1328    8.3331 O.3     1  UNL1       -0.4684
     51 C          68.9502   91.9456    8.6601 C.3     1  UNL1        0.2526
     52 C          62.7591   84.8319   14.1886 C.3     1  UNL1        0.0484
     53 C          62.9230   83.4259   13.6922 C.ar    1  UNL1       -0.0204
     54 C          61.8508   82.4094   13.9510 C.ar    1  UNL1       -0.0042
     55 C          62.0148   81.0034   13.4546 C.ar    1  UNL1       -0.0003
     56 C          63.2509   80.6140   12.6994 C.ar    1  UNL1       -0.0000
     57 C          64.3231   81.6306   12.4406 C.ar    1  UNL1       -0.0003
     58 C          64.1591   83.0365   12.9370 C.ar    1  UNL1       -0.0042
@<TRIPOS>BOND
     1    18    19    1
     2    19    13    1
     3    13    14   ar
     4    14    15   ar
     5    15    16   ar
     6    16    12    1
     7    12    11    1
     8    11     7    1
     9     7     8    2
    10     7     9   am
    11     6     9    1
    12     6     2    1
    13     2     3    2
    14     2     4   am
    15     4     1    1
    16     1    52    1
    17    52    53    1
    18    53    54   ar
    19    54    55   ar
    20    55    56   ar
    21    56    57   ar
    22    57    58   ar
    23     1    23    1
    24    23    24    1
    25    23    26    1
    26    26    27    1
    27    27    28    1
    28    28    29    1
    29    29    30    1
    30    30    41    1
    31    41    42    1
    32    42    43   ar
    33    43    44   ar
    34    44    45   ar
    35    45    48    1
    36    48    49    1
    37    45    46   ar
    38    46    50    1
    39    50    51    1
    40    46    47   ar
    41    30    31    1
    42    31    32    1
    43    32    33    1
    44    33    34    2
    45    33    35   am
    46    35    37    1
    47    37    38    1
    48    37    39    1
    49    37    40    1
    50     6    20    1
    51    20    21    1
    52    20    22    1
    53    16    17   ar
    54    17    13   ar
    55    58    53   ar
    56    32    27    1
    57    47    42   ar
    58     9    10    1
    59     4     5    1
    60    24    25    1
    61    35    36    1
@<TRIPOS>MOLECULE
*****
 58 61 0 0 0
SMALL
GASTEIGER

@<TRIPOS>ATOM
      1 C          63.5602   90.4522   13.7967 C.3     1  UNL1        0.1041
      2 C          63.9849   88.1083   14.8341 C.2     1  UNL1        0.2405
      3 O          64.6666   87.6728   13.5710 O.2     1  UNL1       -0.2733
      4 N          63.4317   89.4980   14.9470 N.am    1  UNL1       -0.3019
      5 H          62.9842   89.7839   15.7760 H       1  UNL1        0.1495
      6 C          63.8563   87.1542   15.9843 C.3     1  UNL1        0.1510
      7 C          63.6715   84.6350   15.3760 C.2     1  UNL1        0.4023
      8 O          62.2525   84.8451   14.9375 O.2     1  UNL1       -0.2264
      9 N          64.4734   85.7896   15.8995 N.am    1  UNL1       -0.2640
     10 H          65.4048   85.6518   16.1873 H       1  UNL1        0.1532
     11 O          64.2886   83.2705   15.2911 O.3     1  UNL1       -0.4291
     12 C          64.1305   82.4521   14.0440 C.3     1  UNL1        0.2447
     13 C          60.7500   80.5458   13.9813 C.ar    1  UNL1        0.0881
     14 N          61.6842   79.4967   13.4553 N.ar    1  UNL1       -0.2414
     15 C          63.0642   80.0831   13.4148 C.ar    1  UNL1        0.1048
     16 C          62.9830   81.4947   13.9157 C.ar    1  UNL1        0.0710
     17 S          61.5527   81.7806   14.2659 S.2     1  UNL1       -0.0715
     18 C          58.7140   79.0689   14.6321 C.3     1  UNL1        0.0073
     19 C          59.2726   80.3879   14.1867 C.3     1  UNL1        0.0526
     20 C          63.1106   87.5645   17.2194 C.3     1  UNL1        0.0270
     21 C          63.0100   89.0152   17.5876 C.3     1  UNL1        0.0022
     22 C          62.4654   86.5243   18.0863 C.3     1  UNL1        0.0022
     23 C          63.1175   90.0371   12.4249 C.3     1  UNL1        0.1445
     24 O          63.8765   90.5046   11.2185 O.3     1  UNL1       -0.3813
     25 H          64.6189   91.0621   11.4995 H       1  UNL1        0.2105
     26 C          61.9159   89.1547   12.2596 C.3     1  UNL1        0.1038
     27 N          61.2077   89.0918   10.9389 N.3     1  UNL1       -0.2620
     28 C          60.4387   90.2803   10.4428 C.3     1  UNL1        0.0901
     29 C          59.7305   90.2174    9.1220 C.3     1  UNL1        0.0899
     30 N          59.7912   88.9659    8.2973 N.3     1  UNL1       -0.2661
     31 C          60.5601   87.7774    8.7934 C.3     1  UNL1        0.0980
     32 C          61.2684   87.8403   10.1141 C.3     1  UNL1        0.1510
     33 C          62.0373   86.6517   10.6102 C.2     1  UNL1        0.2383
     34 O          62.5247   86.6124   12.0283 O.2     1  UNL1       -0.2736
     35 N          62.3189   85.5026    9.6882 N.am    1  UNL1       -0.3063
     36 H          61.9990   85.5284    8.7575 H       1  UNL1        0.1493
     37 C          63.0878   84.3140   10.1843 C.3     1  UNL1        0.0569
     38 C          62.3619   84.3912   11.4946 C.3     1  UNL1        0.0196
     39 C          63.8138   84.2368    8.8739 C.3     1  UNL1        0.0196
     40 C          63.8568   83.1255   10.6804 C.3     1  UNL1        0.0196
     41 C          59.0829   88.9030    6.9766 C.3     1  UNL1        0.0993
     42 C          59.2276   90.0268    5.9936 C.ar    1  UNL1       -0.0029
     43 C          58.0156   90.7805    5.5324 C.ar    1  UNL1        0.0004
     44 C          58.1603   91.9043    4.5494 C.ar    1  UNL1        0.0398
     45 C          59.5171   92.2743    4.0278 C.ar    1  UNL1        0.1724
     46 C          60.7292   91.5206    4.4890 C.ar    1  UNL1        0.1721
     47 C          60.5845   90.3968    5.4720 C.ar    1  UNL1        0.0371
     48 O          59.6618   93.3981    3.0448 O.3     1  UNL1       -0.4684
     49 C          59.6794   93.1095    1.5730 C.3     1  UNL1        0.2526
     50 O          62.0860   91.8906    3.9673 O.3     1  UNL1       -0.4684
     51 C          62.9253   90.8643    3.2656 C.3     1  UNL1        0.2526
     52 C          64.1315   91.8213   14.0183 C.3     1  UNL1        0.0484
     53 C          65.5625   91.9777   14.4400 C.ar    1  UNL1       -0.0204
     54 C          65.8898   92.3871   15.8454 C.ar    1  UNL1       -0.0042
     55 C          67.3207   92.5435   16.2671 C.ar    1  UNL1       -0.0003
     56 C          68.4245   92.2904   15.2833 C.ar    1  UNL1       -0.0000
     57 C          68.0972   91.8810   13.8779 C.ar    1  UNL1       -0.0003
     58 C          66.6663   91.7246   13.4563 C.ar    1  UNL1       -0.0042
@<TRIPOS>BOND
     1    18    19    1
     2    19    13    1
     3    13    14   ar
     4    14    15   ar
     5    15    16   ar
     6    16    12    1
     7    12    11    1
     8    11     7    1
     9     7     8    2
    10     7     9   am
    11     6     9    1
    12     6     2    1
    13     2     3    2
    14     2     4   am
    15     4     1    1
    16     1    52    1
    17    52    53    1
    18    53    54   ar
    19    54    55   ar
    20    55    56   ar
    21    56    57   ar
    22    57    58   ar
    23     1    23    1
    24    23    24    1
    25    23    26    1
    26    26    27    1
    27    27    28    1
    28    28    29    1
    29    29    30    1
    30    30    41    1
    31    41    42    1
    32    42    43   ar
    33    43    44   ar
    34    44    45   ar
    35    45    48    1
    36    48    49    1
    37    45    46   ar
    38    46    50    1
    39    50    51    1
    40    46    47   ar
    41    30    31    1
    42    31    32    1
    43    32    33    1
    44    33    34    2
    45    33    35   am
    46    35    37    1
    47    37    38    1
    48    37    39    1
    49    37    40    1
    50     6    20    1
    51    20    21    1
    52    20    22    1
    53    16    17   ar
    54    17    13   ar
    55    58    53   ar
    56    32    27    1
    57    47    42   ar
    58     9    10    1
    59     4     5    1
    60    24    25    1
    61    35    36    1
@<TRIPOS>MOLECULE
*****
 58 61 0 0 0
SMALL
GASTEIGER

@<TRIPOS>ATOM
      1 C          60.2085   88.6346    9.5093 C.3     1  UNL1        0.1041
      2 C          59.5098   89.5376    7.1755 C.2     1  UNL1        0.2405
      3 O          58.4659   88.4653    7.0731 O.2     1  UNL1       -0.2733
      4 N          60.3810   89.6223    8.3936 N.am    1  UNL1       -0.3019
      5 H          61.0661   90.3261    8.4609 H       1  UNL1        0.1495
      6 C          59.6823   90.5253    6.0599 C.3     1  UNL1        0.1510
      7 C          61.1927   91.4075    4.1387 C.2     1  UNL1        0.4023
      8 O          59.9722   91.7557    3.3392 O.2     1  UNL1       -0.2264
      9 N          61.0478   90.7923    5.4991 N.am    1  UNL1       -0.2640
     10 H          61.8488   90.5638    6.0239 H       1  UNL1        0.1532
     11 O          62.5580   91.6745    3.5779 O.3     1  UNL1       -0.4291
     12 C          62.7230   91.9789    2.1184 C.3     1  UNL1        0.2447
     13 C          63.5565   95.5380    0.8133 C.ar    1  UNL1        0.0881
     14 N          62.0779   95.6511    1.0392 N.ar    1  UNL1       -0.2414
     15 C          61.5857   94.3316    1.5556 C.ar    1  UNL1        0.1048
     16 C          62.7601   93.4031    1.6488 C.ar    1  UNL1        0.0710
     17 S          63.9781   94.1487    1.1901 S.2     1  UNL1       -0.0715
     18 C          65.4935   96.3109   -0.7361 C.3     1  UNL1        0.0073
     19 C          64.4556   96.6238    0.3006 C.3     1  UNL1        0.0526
     20 C          58.4896   91.2460    5.5050 C.3     1  UNL1        0.0270
     21 C          57.2147   90.4988    5.2474 C.3     1  UNL1        0.0022
     22 C          58.5717   92.7140    5.2078 C.3     1  UNL1        0.0022
     23 C          60.4073   89.0675   10.9317 C.3     1  UNL1        0.1445
     24 O          59.3578   89.8896   11.6191 O.3     1  UNL1       -0.3813
     25 H          58.6222   90.0515   11.0080 H       1  UNL1        0.2105
     26 C          61.6557   88.6782   11.6666 C.3     1  UNL1        0.1038
     27 N          62.6958   89.7130   11.9785 N.3     1  UNL1       -0.2620
     28 C          62.7696   90.9712   11.1652 C.3     1  UNL1        0.0901
     29 C          63.8099   92.0060   11.4771 C.3     1  UNL1        0.0899
     30 N          64.7762   91.7825   12.6023 N.3     1  UNL1       -0.2661
     31 C          64.7025   90.5243   13.4156 C.3     1  UNL1        0.0980
     32 C          63.6623   89.4895   13.1037 C.3     1  UNL1        0.1510
     33 C          63.5885   88.2313   13.9170 C.2     1  UNL1        0.2383
     34 O          63.2035   88.2959   15.3653 O.2     1  UNL1       -0.2736
     35 N          63.8998   86.9085   13.2820 N.am    1  UNL1       -0.3063
     36 H          64.1525   86.8661   12.3314 H       1  UNL1        0.1493
     37 C          63.8260   85.6503   14.0953 C.3     1  UNL1        0.0569
     38 C          64.8979   86.1749   15.0041 C.3     1  UNL1        0.0196
     39 C          62.7542   85.1257   13.1865 C.3     1  UNL1        0.0196
     40 C          63.7523   84.3921   14.9086 C.3     1  UNL1        0.0196
     41 C          65.8164   92.8172   12.9142 C.3     1  UNL1        0.0993
     42 C          66.2734   93.7668   11.8468 C.ar    1  UNL1       -0.0029
     43 C          66.0617   95.2422   12.0147 C.ar    1  UNL1        0.0004
     44 C          66.5187   96.1918   10.9473 C.ar    1  UNL1        0.0398
     45 C          67.1874   95.6660    9.7119 C.ar    1  UNL1        0.1724
     46 C          67.3992   94.1905    9.5439 C.ar    1  UNL1        0.1721
     47 C          66.9422   93.2409   10.6113 C.ar    1  UNL1        0.0371
     48 O          67.6444   96.6156    8.6444 O.3     1  UNL1       -0.4684
     49 C          66.7897   96.8517    7.4347 C.3     1  UNL1        0.2526
     50 O          68.0679   93.6646    8.3085 O.3     1  UNL1       -0.4684
     51 C          68.8406   92.3801    8.3628 C.3     1  UNL1        0.2526
     52 C          59.8370   87.2141    9.2026 C.3     1  UNL1        0.0484
     53 C          60.8152   86.3173    8.5033 C.ar    1  UNL1       -0.0204
     54 C          60.4174   85.6146    7.2393 C.ar    1  UNL1       -0.0042
     55 C          61.3956   84.7178    6.5400 C.ar    1  UNL1       -0.0003
     56 C          62.7716   84.5238    7.1048 C.ar    1  UNL1       -0.0000
     57 C          63.1694   85.2266    8.3689 C.ar    1  UNL1       -0.0003
     58 C          62.1912   86.1233    9.0681 C.ar    1  UNL1       -0.0042
@<TRIPOS>BOND
     1    18    19    1
     2    19    13    1
     3    13    14   ar
     4    14    15   ar
     5    15    16   ar
     6    16    12    1
     7    12    11    1
     8    11     7    1
     9     7     8    2
    10     7     9   am
    11     6     9    1
    12     6     2    1
    13     2     3    2
    14     2     4   am
    15     4     1    1
    16     1    52    1
    17    52    53    1
    18    53    54   ar
    19    54    55   ar
    20    55    56   ar
    21    56    57   ar
    22    57    58   ar
    23     1    23    1
    24    23    24    1
    25    23    26    1
    26    26    27    1
    27    27    28    1
    28    28    29    1
    29    29    30    1
    30    30    41    1
    31    41    42    1
    32    42    43   ar
    33    43    44   ar
    34    44    45   ar
    35    45    48    1
    36    48    49    1
    37    45    46   ar
    38    46    50    1
    39    50    51    1
    40    46    47   ar
    41    30    31    1
    42    31    32    1
    43    32    33    1
    44    33    34    2
    45    33    35   am
    46    35    37    1
    47    37    38    1
    48    37    39    1
    49    37    40    1
    50     6    20    1
    51    20    21    1
    52    20    22    1
    53    16    17   ar
    54    17    13   ar
    55    58    53   ar
    56    32    27    1
    57    47    42   ar
    58     9    10    1
    59     4     5    1
    60    24    25    1
    61    35    36    1
@<TRIPOS>MOLECULE
*****
 58 61 0 0 0
SMALL
GASTEIGER

@<TRIPOS>ATOM
      1 C          60.2309   88.2201   11.3798 C.3     1  UNL1        0.1041
      2 C          61.9288   86.4397   10.5446 C.2     1  UNL1        0.2405
      3 O          62.3125   87.3392    9.4072 O.2     1  UNL1       -0.2733
      4 N          60.8880   86.8802   11.5309 N.am    1  UNL1       -0.3019
      5 H          60.6362   86.2898   12.2774 H       1  UNL1        0.1495
      6 C          62.5859   85.0998   10.6957 C.3     1  UNL1        0.1510
      7 C          63.0493   85.0567   13.2518 C.2     1  UNL1        0.4023
      8 O          63.6128   86.4447   13.1730 O.2     1  UNL1       -0.2264
      9 N          62.5359   84.3843   12.0132 N.am    1  UNL1       -0.2640
     10 H          62.1661   83.4733   12.0649 H       1  UNL1        0.1532
     11 O          62.9994   84.3413   14.5692 O.3     1  UNL1       -0.4291
     12 C          63.6066   82.9764   14.7049 C.3     1  UNL1        0.2447
     13 C          62.5757   80.0170   12.4147 C.ar    1  UNL1        0.0881
     14 N          61.4765   79.9904   13.4351 N.ar    1  UNL1       -0.2414
     15 C          61.7289   81.0957   14.4172 C.ar    1  UNL1        0.1048
     16 C          62.9841   81.8055   14.0038 C.ar    1  UNL1        0.0710
     17 S          63.5074   81.1388   12.7662 S.2     1  UNL1       -0.0715
     18 C          62.8351   79.6369    9.8577 C.3     1  UNL1        0.0073
     19 C          62.7181   79.0854   11.2477 C.3     1  UNL1        0.0526
     20 C          63.2930   84.4754    9.5295 C.3     1  UNL1        0.0270
     21 C          64.2228   83.3188    9.7478 C.3     1  UNL1        0.0022
     22 C          63.0702   85.0077    8.1449 C.3     1  UNL1        0.0022
     23 C          60.7537   89.4020   12.1414 C.3     1  UNL1        0.1445
     24 O          60.1264   90.7517   11.9547 O.3     1  UNL1       -0.3813
     25 H          59.4024   90.6857   11.3125 H       1  UNL1        0.2105
     26 C          61.9036   89.2341   13.0898 C.3     1  UNL1        0.1038
     27 N          63.0191   90.2369   13.1009 N.3     1  UNL1       -0.2620
     28 C          63.3300   91.0266   11.8641 C.3     1  UNL1        0.0901
     29 C          64.4455   92.0294   11.8753 C.3     1  UNL1        0.0899
     30 N          65.2500   92.2425   13.1232 N.3     1  UNL1       -0.2661
     31 C          64.9391   91.4527   14.3600 C.3     1  UNL1        0.0980
     32 C          63.8236   90.4500   14.3488 C.3     1  UNL1        0.1510
     33 C          63.5127   89.6602   15.5856 C.2     1  UNL1        0.2383
     34 O          63.2204   90.3696   16.8747 O.2     1  UNL1       -0.2736
     35 N          63.4940   88.1613   15.5335 N.am    1  UNL1       -0.3063
     36 H          63.6858   87.6958   14.6874 H       1  UNL1        0.1493
     37 C          63.1831   87.3716   16.7702 C.3     1  UNL1        0.0569
     38 C          62.1554   88.3913   17.1630 C.3     1  UNL1        0.0196
     39 C          64.2107   86.3519   16.3775 C.3     1  UNL1        0.0196
     40 C          62.8721   86.5819   18.0070 C.3     1  UNL1        0.0196
     41 C          66.3655   93.2452   13.1343 C.3     1  UNL1        0.0993
     42 C          66.6124   94.1058   11.9308 C.ar    1  UNL1       -0.0029
     43 C          66.2382   95.5581   11.9577 C.ar    1  UNL1        0.0004
     44 C          66.4851   96.4186   10.7542 C.ar    1  UNL1        0.0398
     45 C          67.1062   95.8269    9.5237 C.ar    1  UNL1        0.1724
     46 C          67.4804   94.3745    9.4967 C.ar    1  UNL1        0.1721
     47 C          67.2335   93.5140   10.7003 C.ar    1  UNL1        0.0371
     48 O          67.3532   96.6875    8.3202 O.3     1  UNL1       -0.4684
     49 C          66.2802   96.8558    7.2857 C.3     1  UNL1        0.2526
     50 O          68.1015   93.7828    8.2663 O.3     1  UNL1       -0.4684
     51 C          68.8400   92.4799    8.3513 C.3     1  UNL1        0.2526
     52 C          59.0511   88.3782   10.4671 C.3     1  UNL1        0.0484
     53 C          59.2580   88.4832    8.9851 C.ar    1  UNL1       -0.0204
     54 C          59.6722   89.7901    8.3765 C.ar    1  UNL1       -0.0042
     55 C          59.8791   89.8951    6.8945 C.ar    1  UNL1       -0.0003
     56 C          59.6719   88.6932    6.0213 C.ar    1  UNL1       -0.0000
     57 C          59.2578   87.3863    6.6300 C.ar    1  UNL1       -0.0003
     58 C          59.0509   87.2813    8.1119 C.ar    1  UNL1       -0.0042
@<TRIPOS>BOND
     1    18    19    1
     2    19    13    1
     3    13    14   ar
     4    14    15   ar
     5    15    16   ar
     6    16    12    1
     7    12    11    1
     8    11     7    1
     9     7     8    2
    10     7     9   am
    11     6     9    1
    12     6     2    1
    13     2     3    2
    14     2     4   am
    15     4     1    1
    16     1    52    1
    17    52    53    1
    18    53    54   ar
    19    54    55   ar
    20    55    56   ar
    21    56    57   ar
    22    57    58   ar
    23     1    23    1
    24    23    24    1
    25    23    26    1
    26    26    27    1
    27    27    28    1
    28    28    29    1
    29    29    30    1
    30    30    41    1
    31    41    42    1
    32    42    43   ar
    33    43    44   ar
    34    44    45   ar
    35    45    48    1
    36    48    49    1
    37    45    46   ar
    38    46    50    1
    39    50    51    1
    40    46    47   ar
    41    30    31    1
    42    31    32    1
    43    32    33    1
    44    33    34    2
    45    33    35   am
    46    35    37    1
    47    37    38    1
    48    37    39    1
    49    37    40    1
    50     6    20    1
    51    20    21    1
    52    20    22    1
    53    16    17   ar
    54    17    13   ar
    55    58    53   ar
    56    32    27    1
    57    47    42   ar
    58     9    10    1
    59     4     5    1
    60    24    25    1
    61    35    36    1
@<TRIPOS>MOLECULE
*****
 58 61 0 0 0
SMALL
GASTEIGER

@<TRIPOS>ATOM
      1 C          60.3366   88.2739    9.0117 C.3     1  UNL1        0.1041
      2 C          61.0192   86.0511    7.8526 C.2     1  UNL1        0.2405
      3 O          59.5741   85.7403    7.5975 O.2     1  UNL1       -0.2733
      4 N          61.4004   87.3179    8.5597 N.am    1  UNL1       -0.3019
      5 H          62.3489   87.5219    8.7272 H       1  UNL1        0.1495
      6 C          62.0831   85.0952    7.4006 C.3     1  UNL1        0.1510
      7 C          62.9833   84.7160    9.8081 C.2     1  UNL1        0.4023
      8 O          61.6349   85.0620   10.3668 O.2     1  UNL1       -0.2264
      9 N          63.2074   84.7326    8.3251 N.am    1  UNL1       -0.2640
     10 H          64.0925   84.5055    7.9584 H       1  UNL1        0.1532
     11 O          64.1076   84.3535   10.7325 O.3     1  UNL1       -0.4291
     12 C          64.4155   82.9118   11.0096 C.3     1  UNL1        0.2447
     13 C          61.9540   81.3335   13.5621 C.ar    1  UNL1        0.0881
     14 N          63.2702   80.8392   14.0851 N.ar    1  UNL1       -0.2414
     15 C          64.3524   81.3703   13.1925 C.ar    1  UNL1        0.1048
     16 C          63.7051   82.1928   12.1180 C.ar    1  UNL1        0.0710
     17 S          62.2228   82.1700   12.3465 S.2     1  UNL1       -0.0715
     18 C          60.1045   79.6299   14.2161 C.3     1  UNL1        0.0073
     19 C          60.6057   81.0423   14.1515 C.3     1  UNL1        0.0526
     20 C          62.0227   84.5018    6.0244 C.3     1  UNL1        0.0270
     21 C          63.0916   84.8222    5.0219 C.3     1  UNL1        0.0022
     22 C          60.8934   83.5881    5.6505 C.3     1  UNL1        0.0022
     23 C          60.4881   89.0040   10.3133 C.3     1  UNL1        0.1445
     24 O          59.5159   90.0842   10.6848 O.3     1  UNL1       -0.3813
     25 H          58.8575   90.1833    9.9794 H       1  UNL1        0.2105
     26 C          61.6117   88.6539   11.2432 C.3     1  UNL1        0.1038
     27 N          62.6356   89.6886   11.6053 N.3     1  UNL1       -0.2620
     28 C          62.7056   90.9753   10.8375 C.3     1  UNL1        0.0901
     29 C          63.7295   92.0100   11.1997 C.3     1  UNL1        0.0899
     30 N          64.6834   91.7579   12.3295 N.3     1  UNL1       -0.2661
     31 C          64.6134   90.4712   13.0972 C.3     1  UNL1        0.0980
     32 C          63.5895   89.4365   12.7352 C.3     1  UNL1        0.1510
     33 C          63.5195   88.1498   13.5029 C.2     1  UNL1        0.2383
     34 O          63.0834   86.8895   12.8162 O.2     1  UNL1       -0.2736
     35 N          63.8856   88.1233   14.9573 N.am    1  UNL1       -0.3063
     36 H          64.1718   88.9505   15.4080 H       1  UNL1        0.1493
     37 C          63.8156   86.8366   15.7250 C.3     1  UNL1        0.0569
     38 C          62.8651   87.4689   16.6981 C.3     1  UNL1        0.0196
     39 C          64.7660   86.2043   14.7520 C.3     1  UNL1        0.0196
     40 C          63.7456   85.5499   16.4928 C.3     1  UNL1        0.0196
     41 C          65.7072   92.7925   12.6916 C.3     1  UNL1        0.0993
     42 C          66.2414   93.7193   11.6400 C.ar    1  UNL1       -0.0029
     43 C          66.1189   95.2038   11.8163 C.ar    1  UNL1        0.0004
     44 C          66.6530   96.1306   10.7647 C.ar    1  UNL1        0.0398
     45 C          67.3096   95.5728    9.5369 C.ar    1  UNL1        0.1724
     46 C          67.4322   94.0882    9.3605 C.ar    1  UNL1        0.1721
     47 C          66.8980   93.1615   10.4121 C.ar    1  UNL1        0.0371
     48 O          67.8438   96.4996    8.4853 O.3     1  UNL1       -0.4684
     49 C          66.9987   96.8527    7.2974 C.3     1  UNL1        0.2526
     50 O          68.0888   93.5305    8.1327 O.3     1  UNL1       -0.4684
     51 C          68.9235   92.2877    8.2273 C.3     1  UNL1        0.2526
     52 C          59.1212   88.4998    8.1621 C.3     1  UNL1        0.0484
     53 C          59.1776   89.4623    7.0129 C.ar    1  UNL1       -0.0204
     54 C          60.5040   89.9158    6.4790 C.ar    1  UNL1       -0.0042
     55 C          60.5604   90.8783    5.3299 C.ar    1  UNL1       -0.0003
     56 C          59.2905   91.3871    4.7147 C.ar    1  UNL1       -0.0000
     57 C          57.9642   90.9336    5.2487 C.ar    1  UNL1       -0.0003
     58 C          57.9078   89.9711    6.3978 C.ar    1  UNL1       -0.0042
@<TRIPOS>BOND
     1    18    19    1
     2    19    13    1
     3    13    14   ar
     4    14    15   ar
     5    15    16   ar
     6    16    12    1
     7    12    11    1
     8    11     7    1
     9     7     8    2
    10     7     9   am
    11     6     9    1
    12     6     2    1
    13     2     3    2
    14     2     4   am
    15     4     1    1
    16     1    52    1
    17    52    53    1
    18    53    54   ar
    19    54    55   ar
    20    55    56   ar
    21    56    57   ar
    22    57    58   ar
    23     1    23    1
    24    23    24    1
    25    23    26    1
    26    26    27    1
    27    27    28    1
    28    28    29    1
    29    29    30    1
    30    30    41    1
    31    41    42    1
    32    42    43   ar
    33    43    44   ar
    34    44    45   ar
    35    45    48    1
    36    48    49    1
    37    45    46   ar
    38    46    50    1
    39    50    51    1
    40    46    47   ar
    41    30    31    1
    42    31    32    1
    43    32    33    1
    44    33    34    2
    45    33    35   am
    46    35    37    1
    47    37    38    1
    48    37    39    1
    49    37    40    1
    50     6    20    1
    51    20    21    1
    52    20    22    1
    53    16    17   ar
    54    17    13   ar
    55    58    53   ar
    56    32    27    1
    57    47    42   ar
    58     9    10    1
    59     4     5    1
    60    24    25    1
    61    35    36    1
@<TRIPOS>MOLECULE
*****
 58 61 0 0 0
SMALL
GASTEIGER

@<TRIPOS>ATOM
      1 C          62.8934   85.7627    9.2631 C.3     1  UNL1        0.1041
      2 C          60.9323   87.4644    9.1704 C.2     1  UNL1        0.2405
      3 O          59.9605   86.3350    8.9970 O.2     1  UNL1       -0.2733
      4 N          62.3988   87.1782    9.3035 N.am    1  UNL1       -0.3019
      5 H          63.0366   87.9195    9.4173 H       1  UNL1        0.1495
      6 C          60.4377   88.8799    9.2108 C.3     1  UNL1        0.1510
      7 C          59.0607   89.0829    7.0169 C.2     1  UNL1        0.4023
      8 O          58.3028   87.8397    7.3777 O.2     1  UNL1       -0.2264
      9 N          60.1282   89.6030    7.9335 N.am    1  UNL1       -0.2640
     10 H          60.6257   90.4189    7.6967 H       1  UNL1        0.1532
     11 O          58.7513   89.8059    5.7397 O.3     1  UNL1       -0.4291
     12 C          59.0521   91.2701    5.6148 C.3     1  UNL1        0.2447
     13 C          61.9203   92.0476    3.1180 C.ar    1  UNL1        0.0881
     14 N          60.8453   92.9679    2.6202 N.ar    1  UNL1       -0.2414
     15 C          59.6401   92.7886    3.4950 C.ar    1  UNL1        0.1048
     16 C          59.9701   91.7576    4.5333 C.ar    1  UNL1        0.0710
     17 S          61.3794   91.2996    4.3003 S.2     1  UNL1       -0.0715
     18 C          63.9023   93.0281    1.7540 C.3     1  UNL1        0.0073
     19 C          63.2949   91.9011    2.5356 C.3     1  UNL1        0.0526
     20 C          60.2525   89.5723   10.5284 C.3     1  UNL1        0.0270
     21 C          59.3203   88.9974   11.5534 C.3     1  UNL1        0.0022
     22 C          60.9995   90.8397   10.8211 C.3     1  UNL1        0.0022
     23 C          62.7370   84.8790   10.4650 C.3     1  UNL1        0.1445
     24 O          63.2079   83.4557   10.4158 O.3     1  UNL1       -0.3813
     25 H          63.5853   83.2700    9.5417 H       1  UNL1        0.2105
     26 C          62.1098   85.4186   11.7161 C.3     1  UNL1        0.1038
     27 N          62.8181   86.4712   12.5164 N.3     1  UNL1       -0.2620
     28 C          62.7366   87.9103   12.1014 C.3     1  UNL1        0.0901
     29 C          63.4449   88.9629   12.9018 C.3     1  UNL1        0.0899
     30 N          64.2347   88.5763   14.1169 N.3     1  UNL1       -0.2661
     31 C          64.3162   87.1371   14.5319 C.3     1  UNL1        0.0980
     32 C          63.6079   86.0846   13.7316 C.3     1  UNL1        0.1510
     33 C          63.6894   84.6454   14.1466 C.2     1  UNL1        0.2383
     34 O          64.3712   84.2723   15.4296 O.2     1  UNL1       -0.2736
     35 N          63.0893   83.5795   13.2786 N.am    1  UNL1       -0.3063
     36 H          62.6419   83.8244   12.4365 H       1  UNL1        0.1493
     37 C          63.1708   82.1403   13.6935 C.3     1  UNL1        0.0569
     38 C          61.8905   82.2890   14.4608 C.3     1  UNL1        0.0196
     39 C          64.4511   81.9916   12.9263 C.3     1  UNL1        0.0196
     40 C          63.2523   80.7012   14.1085 C.3     1  UNL1        0.0196
     41 C          64.9430   89.6289   14.9172 C.3     1  UNL1        0.0993
     42 C          65.3899   90.8992   14.2565 C.ar    1  UNL1       -0.0029
     43 C          64.7948   91.3109   12.9427 C.ar    1  UNL1        0.0004
     44 C          65.2417   92.5813   12.2820 C.ar    1  UNL1        0.0398
     45 C          66.2837   93.4400   12.9353 C.ar    1  UNL1        0.1724
     46 C          66.8789   93.0283   14.2492 C.ar    1  UNL1        0.1721
     47 C          66.4320   91.7579   14.9099 C.ar    1  UNL1        0.0371
     48 O          66.7306   94.7103   12.2746 O.3     1  UNL1       -0.4684
     49 C          66.0388   95.1946   11.0350 C.3     1  UNL1        0.2526
     50 O          67.9209   93.8870   14.9025 O.3     1  UNL1       -0.4684
     51 C          68.9193   93.2733   15.8388 C.3     1  UNL1        0.2526
     52 C          63.5444   85.2309    8.0208 C.3     1  UNL1        0.0484
     53 C          62.7007   84.7976    6.8586 C.ar    1  UNL1       -0.0204
     54 C          63.2878   84.7589    5.4788 C.ar    1  UNL1       -0.0042
     55 C          62.4441   84.3256    4.3167 C.ar    1  UNL1       -0.0003
     56 C          61.0135   83.9309    4.5344 C.ar    1  UNL1       -0.0000
     57 C          60.4264   83.9696    5.9142 C.ar    1  UNL1       -0.0003
     58 C          61.2701   84.4029    7.0763 C.ar    1  UNL1       -0.0042
@<TRIPOS>BOND
     1    18    19    1
     2    19    13    1
     3    13    14   ar
     4    14    15   ar
     5    15    16   ar
     6    16    12    1
     7    12    11    1
     8    11     7    1
     9     7     8    2
    10     7     9   am
    11     6     9    1
    12     6     2    1
    13     2     3    2
    14     2     4   am
    15     4     1    1
    16     1    52    1
    17    52    53    1
    18    53    54   ar
    19    54    55   ar
    20    55    56   ar
    21    56    57   ar
    22    57    58   ar
    23     1    23    1
    24    23    24    1
    25    23    26    1
    26    26    27    1
    27    27    28    1
    28    28    29    1
    29    29    30    1
    30    30    41    1
    31    41    42    1
    32    42    43   ar
    33    43    44   ar
    34    44    45   ar
    35    45    48    1
    36    48    49    1
    37    45    46   ar
    38    46    50    1
    39    50    51    1
    40    46    47   ar
    41    30    31    1
    42    31    32    1
    43    32    33    1
    44    33    34    2
    45    33    35   am
    46    35    37    1
    47    37    38    1
    48    37    39    1
    49    37    40    1
    50     6    20    1
    51    20    21    1
    52    20    22    1
    53    16    17   ar
    54    17    13   ar
    55    58    53   ar
    56    32    27    1
    57    47    42   ar
    58     9    10    1
    59     4     5    1
    60    24    25    1
    61    35    36    1
@<TRIPOS>MOLECULE
*****
 58 61 0 0 0
SMALL
GASTEIGER

@<TRIPOS>ATOM
      1 C          62.5177   90.6871   10.2688 C.3     1  UNL1        0.1041
      2 C          60.3909   89.7452    9.1113 C.2     1  UNL1        0.2405
      3 O          59.5321   90.4244   10.1365 O.2     1  UNL1       -0.2733
      4 N          61.8837   89.8765    9.1774 N.am    1  UNL1       -0.3019
      5 H          62.4474   89.4307    8.5045 H       1  UNL1        0.1495
      6 C          59.7569   88.9346    8.0200 C.3     1  UNL1        0.1510
      7 C          59.6465   90.4049    5.8808 C.2     1  UNL1        0.4023
      8 O          61.1425   90.5157    5.8798 O.2     1  UNL1       -0.2264
      9 N          58.9537   89.6143    6.9509 N.am    1  UNL1       -0.2640
     10 H          57.9719   89.5416    6.9515 H       1  UNL1        0.1532
     11 O          58.8434   91.0846    4.8117 O.3     1  UNL1       -0.4291
     12 C          59.2436   92.4455    4.3240 C.3     1  UNL1        0.2447
     13 C          60.7845   92.9864    0.8029 C.ar    1  UNL1        0.0881
     14 N          61.9986   92.5988    1.5941 N.ar    1  UNL1       -0.2414
     15 C          61.5690   92.3490    3.0094 C.ar    1  UNL1        0.1048
     16 C          60.0896   92.5822    3.0929 C.ar    1  UNL1        0.0710
     17 S          59.6048   92.9761    1.7292 S.2     1  UNL1       -0.0715
     18 C          59.5726   92.9360   -1.4947 C.3     1  UNL1        0.0073
     19 C          60.7555   93.3248   -0.6582 C.3     1  UNL1        0.0526
     20 C          59.9261   87.4444    7.9977 C.3     1  UNL1        0.0270
     21 C          58.8162   86.5710    7.4925 C.3     1  UNL1        0.0022
     22 C          61.2052   86.8275    8.4807 C.3     1  UNL1        0.0022
     23 C          62.4228   90.2299   11.6943 C.3     1  UNL1        0.1445
     24 O          61.1147   90.3146   12.4235 O.3     1  UNL1       -0.3813
     25 H          60.4391   90.6846   11.8339 H       1  UNL1        0.2105
     26 C          63.6359   89.6881   12.3905 C.3     1  UNL1        0.1038
     27 N          63.5879   88.3355   13.0372 N.3     1  UNL1       -0.2620
     28 C          63.1656   87.1374   12.2396 C.3     1  UNL1        0.0901
     29 C          63.1176   85.7848   12.8863 C.3     1  UNL1        0.0899
     30 N          63.4920   85.6303   14.3306 N.3     1  UNL1       -0.2661
     31 C          63.9143   86.8284   15.1282 C.3     1  UNL1        0.0980
     32 C          63.9622   88.1810   14.4815 C.3     1  UNL1        0.1510
     33 C          64.3845   89.3791   15.2791 C.2     1  UNL1        0.2383
     34 O          63.8083   89.6123   16.6443 O.2     1  UNL1       -0.2736
     35 N          65.3830   90.3440   14.7117 N.am    1  UNL1       -0.3063
     36 H          65.7612   90.1909   13.8157 H       1  UNL1        0.1493
     37 C          65.8053   91.5421   15.5093 C.3     1  UNL1        0.0569
     38 C          64.3676   91.8537   15.8024 C.3     1  UNL1        0.0196
     39 C          67.2430   91.2304   15.2162 C.3     1  UNL1        0.0196
     40 C          66.2276   92.7402   16.3069 C.3     1  UNL1        0.0196
     41 C          63.4440   84.2778   14.9772 C.3     1  UNL1        0.0993
     42 C          63.2537   83.0505   14.1359 C.ar    1  UNL1       -0.0029
     43 C          64.1857   82.7721   12.9940 C.ar    1  UNL1        0.0004
     44 C          63.9954   81.5449   12.1528 C.ar    1  UNL1        0.0398
     45 C          62.8732   80.5961   12.4534 C.ar    1  UNL1        0.1724
     46 C          61.9412   80.8745   13.5953 C.ar    1  UNL1        0.1721
     47 C          62.1315   82.1017   14.4366 C.ar    1  UNL1        0.0371
     48 O          62.6829   79.3689   11.6121 O.3     1  UNL1       -0.4684
     49 C          62.7687   79.4634   10.1176 C.3     1  UNL1        0.2526
     50 O          60.8190   79.9257   13.8959 O.3     1  UNL1       -0.4684
     51 C          59.4574   80.4572   14.2330 C.3     1  UNL1        0.2526
     52 C          63.2466   91.9548    9.9346 C.3     1  UNL1        0.0484
     53 C          64.5875   92.2326   10.5469 C.ar    1  UNL1       -0.0204
     54 C          65.8387   91.9778    9.7597 C.ar    1  UNL1       -0.0042
     55 C          67.1795   92.2556   10.3719 C.ar    1  UNL1       -0.0003
     56 C          67.2692   92.7882   11.7713 C.ar    1  UNL1       -0.0000
     57 C          66.0181   93.0430   12.5585 C.ar    1  UNL1       -0.0003
     58 C          64.6772   92.7652   11.9462 C.ar    1  UNL1       -0.0042
@<TRIPOS>BOND
     1    18    19    1
     2    19    13    1
     3    13    14   ar
     4    14    15   ar
     5    15    16   ar
     6    16    12    1
     7    12    11    1
     8    11     7    1
     9     7     8    2
    10     7     9   am
    11     6     9    1
    12     6     2    1
    13     2     3    2
    14     2     4   am
    15     4     1    1
    16     1    52    1
    17    52    53    1
    18    53    54   ar
    19    54    55   ar
    20    55    56   ar
    21    56    57   ar
    22    57    58   ar
    23     1    23    1
    24    23    24    1
    25    23    26    1
    26    26    27    1
    27    27    28    1
    28    28    29    1
    29    29    30    1
    30    30    41    1
    31    41    42    1
    32    42    43   ar
    33    43    44   ar
    34    44    45   ar
    35    45    48    1
    36    48    49    1
    37    45    46   ar
    38    46    50    1
    39    50    51    1
    40    46    47   ar
    41    30    31    1
    42    31    32    1
    43    32    33    1
    44    33    34    2
    45    33    35   am
    46    35    37    1
    47    37    38    1
    48    37    39    1
    49    37    40    1
    50     6    20    1
    51    20    21    1
    52    20    22    1
    53    16    17   ar
    54    17    13   ar
    55    58    53   ar
    56    32    27    1
    57    47    42   ar
    58     9    10    1
    59     4     5    1
    60    24    25    1
    61    35    36    1
