@<TRIPOS>MOLECULE
*****
 15 16 0 0 0
SMALL
GASTEIGER

@<TRIPOS>ATOM
      1 C          65.1004   91.3668   14.4063 C.ar    1  UNL1        0.1677
      2 C          66.5431   91.2593   14.8027 C.ar    1  UNL1        0.0424
      3 C          67.3683   91.9009   13.7268 C.ar    1  UNL1        0.0407
      4 C          66.4356   92.4048   12.6656 C.ar    1  UNL1        0.1469
      5 O          65.0340   92.0747   13.0855 O.2     1  UNL1       -0.4518
      6 C          66.8346   93.1142   11.4056 C.ar    1  UNL1        0.0537
      7 C          67.6347   92.3944   10.3607 C.ar    1  UNL1        0.0062
      8 C          68.0336   93.1039    9.1008 C.ar    1  UNL1        0.0208
      9 C          67.6325   94.5332    8.8857 C.ar    1  UNL1        0.0989
     10 N          66.8325   95.2530    9.9306 N.ar    1  UNL1       -0.2422
     11 C          66.4335   94.5435   11.1905 C.ar    1  UNL1        0.1019
     12 O          64.2599   92.7647   16.9241 O.2     1  UNL1       -0.4086
     13 N          63.5093   91.5549   16.4516 N.2     1  UNL1       -0.0814
     14 C          63.9296   90.8560   15.1927 C.2     1  UNL1        0.1771
     15 H          63.9974   93.2013   17.7105 H       1  UNL1        0.3278
@<TRIPOS>BOND
     1    12    13    1
     2    13    14    2
     3    14     1    1
     4     1     2   ar
     5     2     3   ar
     6     3     4   ar
     7     4     6    1
     8     6     7   ar
     9     7     8   ar
    10     8     9   ar
    11     9    10   ar
    12    10    11   ar
    13     4     5   ar
    14     5     1   ar
    15    11     6   ar
    16    12    15    1
@<TRIPOS>MOLECULE
*****
 15 16 0 0 0
SMALL
GASTEIGER

@<TRIPOS>ATOM
      1 C          62.9829   84.8603   15.3359 C.ar    1  UNL1        0.1677
      2 C          62.7638   83.4033   15.0545 C.ar    1  UNL1        0.0424
      3 C          62.6551   83.2295   13.5686 C.ar    1  UNL1        0.0407
      4 C          62.8070   84.5790   12.9317 C.ar    1  UNL1        0.1469
      5 O          63.0096   85.5869   14.0240 O.2     1  UNL1       -0.4518
      6 C          62.7638   84.8696   11.4607 C.ar    1  UNL1        0.0537
      7 C          63.5191   83.9981   10.5016 C.ar    1  UNL1        0.0062
      8 C          63.4760   84.2888    9.0307 C.ar    1  UNL1        0.0208
      9 C          62.6775   85.4509    8.5189 C.ar    1  UNL1        0.0989
     10 N          61.9222   86.3224    9.4780 N.ar    1  UNL1       -0.2422
     11 C          61.9654   86.0318   10.9489 C.ar    1  UNL1        0.1019
     12 O          60.6159   86.0686   16.7278 O.2     1  UNL1       -0.4086
     13 N          61.9631   86.0858   17.3874 N.2     1  UNL1       -0.0814
     14 C          63.1466   85.4816   16.6914 C.2     1  UNL1        0.1771
     15 H          59.8766   86.4460   17.1626 H       1  UNL1        0.3278
@<TRIPOS>BOND
     1    12    13    1
     2    13    14    2
     3    14     1    1
     4     1     2   ar
     5     2     3   ar
     6     3     4   ar
     7     4     6    1
     8     6     7   ar
     9     7     8   ar
    10     8     9   ar
    11     9    10   ar
    12    10    11   ar
    13     4     5   ar
    14     5     1   ar
    15    11     6   ar
    16    12    15    1
@<TRIPOS>MOLECULE
*****
 15 16 0 0 0
SMALL
GASTEIGER

@<TRIPOS>ATOM
      1 C          60.6224   87.7702   10.7449 C.ar    1  UNL1        0.1677
      2 C          61.1206   87.5211    9.3521 C.ar    1  UNL1        0.0424
      3 C          61.9939   86.3019    9.3834 C.ar    1  UNL1        0.0407
      4 C          62.0354   85.7975   10.7955 C.ar    1  UNL1        0.1469
      5 O          61.1878   86.7050   11.6369 O.2     1  UNL1       -0.4518
      6 C          62.7917   84.5965   11.2809 C.ar    1  UNL1        0.0537
      7 C          63.5682   83.7566   10.3106 C.ar    1  UNL1        0.0062
      8 C          64.3245   82.5556   10.7960 C.ar    1  UNL1        0.0208
      9 C          64.3043   82.1946   12.2518 C.ar    1  UNL1        0.0989
     10 N          63.5278   83.0345   13.2221 N.ar    1  UNL1       -0.2422
     11 C          62.7716   84.2355   12.7367 C.ar    1  UNL1        0.1019
     12 O          61.4632   89.6229   12.9496 O.2     1  UNL1       -0.4086
     13 N          60.1380   89.8147   12.2732 N.2     1  UNL1       -0.0814
     14 C          59.7177   88.8883   11.1708 C.2     1  UNL1        0.1771
     15 H          61.7258   90.2016   13.6382 H       1  UNL1        0.3278
@<TRIPOS>BOND
     1    12    13    1
     2    13    14    2
     3    14     1    1
     4     1     2   ar
     5     2     3   ar
     6     3     4   ar
     7     4     6    1
     8     6     7   ar
     9     7     8   ar
    10     8     9   ar
    11     9    10   ar
    12    10    11   ar
    13     4     5   ar
    14     5     1   ar
    15    11     6   ar
    16    12    15    1
@<TRIPOS>MOLECULE
*****
 15 16 0 0 0
SMALL
GASTEIGER

@<TRIPOS>ATOM
      1 C          63.4982   87.4736   16.1254 C.ar    1  UNL1        0.1677
      2 C          63.1236   88.6566   16.9682 C.ar    1  UNL1        0.0424
      3 C          63.3494   89.8959   16.1539 C.ar    1  UNL1        0.0407
      4 C          63.8635   89.4789   14.8078 C.ar    1  UNL1        0.1469
      5 O          63.9555   87.9818   14.7902 O.2     1  UNL1       -0.4518
      6 C          64.2226   90.3977   13.6777 C.ar    1  UNL1        0.0537
      7 C          63.4632   90.3300   12.3860 C.ar    1  UNL1        0.0062
      8 C          63.8223   91.2488   11.2560 C.ar    1  UNL1        0.0208
      9 C          64.9407   92.2352   11.4178 C.ar    1  UNL1        0.0989
     10 N          65.7001   92.3028   12.7096 N.ar    1  UNL1       -0.2422
     11 C          65.3410   91.3840   13.8396 C.ar    1  UNL1        0.1019
     12 O          60.8580   86.2522   16.8585 O.2     1  UNL1       -0.4086
     13 N          62.1078   85.4242   16.9108 N.2     1  UNL1       -0.0814
     14 C          63.4279   86.0350   16.5443 C.2     1  UNL1        0.1771
     15 H          60.0334   85.8707   17.0875 H       1  UNL1        0.3278
@<TRIPOS>BOND
     1    12    13    1
     2    13    14    2
     3    14     1    1
     4     1     2   ar
     5     2     3   ar
     6     3     4   ar
     7     4     6    1
     8     6     7   ar
     9     7     8   ar
    10     8     9   ar
    11     9    10   ar
    12    10    11   ar
    13     4     5   ar
    14     5     1   ar
    15    11     6   ar
    16    12    15    1
@<TRIPOS>MOLECULE
*****
 15 16 0 0 0
SMALL
GASTEIGER

@<TRIPOS>ATOM
      1 C          63.0342   81.8683   11.9926 C.ar    1  UNL1        0.1677
      2 C          63.9181   81.9342   10.7825 C.ar    1  UNL1        0.0424
      3 C          63.8495   83.3286   10.2338 C.ar    1  UNL1        0.0407
      4 C          62.9231   84.1244   11.1048 C.ar    1  UNL1        0.1469
      5 O          62.4193   83.2219   12.1918 O.2     1  UNL1       -0.4518
      6 C          62.5638   85.5691   10.9210 C.ar    1  UNL1        0.0537
      7 C          61.9563   86.0326    9.6303 C.ar    1  UNL1        0.0062
      8 C          61.5970   87.4772    9.4465 C.ar    1  UNL1        0.0208
      9 C          61.8451   88.4585   10.5536 C.ar    1  UNL1        0.0989
     10 N          62.4526   87.9950   11.8444 N.ar    1  UNL1       -0.2422
     11 C          62.8119   86.5504   12.0281 C.ar    1  UNL1        0.1019
     12 O          62.5547   82.1923   14.9363 O.2     1  UNL1       -0.4086
     13 N          62.5657   80.8227   14.3244 N.2     1  UNL1       -0.0814
     14 C          62.8054   80.6608   12.8526 C.2     1  UNL1        0.1771
     15 H          62.4050   82.2935   15.8557 H       1  UNL1        0.3278
@<TRIPOS>BOND
     1    12    13    1
     2    13    14    2
     3    14     1    1
     4     1     2   ar
     5     2     3   ar
     6     3     4   ar
     7     4     6    1
     8     6     7   ar
     9     7     8   ar
    10     8     9   ar
    11     9    10   ar
    12    10    11   ar
    13     4     5   ar
    14     5     1   ar
    15    11     6   ar
    16    12    15    1
@<TRIPOS>MOLECULE
*****
 15 16 0 0 0
SMALL
GASTEIGER

@<TRIPOS>ATOM
      1 C          62.5088   87.3719   11.4418 C.ar    1  UNL1        0.1677
      2 C          62.0735   86.7008   10.1728 C.ar    1  UNL1        0.0424
      3 C          62.1083   85.2181   10.3970 C.ar    1  UNL1        0.0407
      4 C          62.5651   84.9728   11.8046 C.ar    1  UNL1        0.1469
      5 O          62.8126   86.3038   12.4502 O.2     1  UNL1       -0.4518
      6 C          62.7431   83.6317   12.4527 C.ar    1  UNL1        0.0537
      7 C          62.7479   82.3881   11.6140 C.ar    1  UNL1        0.0062
      8 C          62.9259   81.0471   12.2621 C.ar    1  UNL1        0.0208
      9 C          63.0991   80.9498   13.7488 C.ar    1  UNL1        0.0989
     10 N          63.0944   82.1933   14.5875 N.ar    1  UNL1       -0.2422
     11 C          62.9164   83.5343   13.9394 C.ar    1  UNL1        0.1019
     12 O          63.8233   88.4213   13.9259 O.2     1  UNL1       -0.4086
     13 N          63.2778   89.3760   12.9054 N.2     1  UNL1       -0.0814
     14 C          62.6206   88.8512   11.6633 C.2     1  UNL1        0.1771
     15 H          64.2338   88.7491   14.7017 H       1  UNL1        0.3278
@<TRIPOS>BOND
     1    12    13    1
     2    13    14    2
     3    14     1    1
     4     1     2   ar
     5     2     3   ar
     6     3     4   ar
     7     4     6    1
     8     6     7   ar
     9     7     8   ar
    10     8     9   ar
    11     9    10   ar
    12    10    11   ar
    13     4     5   ar
    14     5     1   ar
    15    11     6   ar
    16    12    15    1
@<TRIPOS>MOLECULE
*****
 15 16 0 0 0
SMALL
GASTEIGER

@<TRIPOS>ATOM
      1 C          60.5027   87.3817    9.5722 C.ar    1  UNL1        0.1677
      2 C          61.3838   88.2517   10.4188 C.ar    1  UNL1        0.0424
      3 C          62.3528   87.3648   11.1430 C.ar    1  UNL1        0.0407
      4 C          62.0705   85.9466   10.7439 C.ar    1  UNL1        0.1469
      5 O          60.9270   85.9571    9.7731 O.2     1  UNL1       -0.4518
      6 C          62.8030   84.7313   11.2303 C.ar    1  UNL1        0.0537
      7 C          63.5336   83.8560   10.2557 C.ar    1  UNL1        0.0062
      8 C          64.2662   82.6408   10.7421 C.ar    1  UNL1        0.0208
      9 C          64.2680   82.3009   12.2031 C.ar    1  UNL1        0.0989
     10 N          63.5374   83.1763   13.1777 N.ar    1  UNL1       -0.2422
     11 C          62.8049   84.3915   12.6913 C.ar    1  UNL1        0.1019
     12 O          59.5032   85.6193    7.3597 O.2     1  UNL1       -0.4086
     13 N          58.8923   86.9724    7.5748 N.2     1  UNL1       -0.0814
     14 C          59.3921   87.8536    8.6811 C.2     1  UNL1        0.1771
     15 H          59.1911   85.0689    6.6687 H       1  UNL1        0.3278
@<TRIPOS>BOND
     1    12    13    1
     2    13    14    2
     3    14     1    1
     4     1     2   ar
     5     2     3   ar
     6     3     4   ar
     7     4     6    1
     8     6     7   ar
     9     7     8   ar
    10     8     9   ar
    11     9    10   ar
    12    10    11   ar
    13     4     5   ar
    14     5     1   ar
    15    11     6   ar
    16    12    15    1
@<TRIPOS>MOLECULE
*****
 15 16 0 0 0
SMALL
GASTEIGER

@<TRIPOS>ATOM
      1 C          63.7485   87.8010   13.4948 C.ar    1  UNL1        0.1677
      2 C          64.4813   87.4276   14.7493 C.ar    1  UNL1        0.0424
      3 C          64.4496   85.9335   14.8774 C.ar    1  UNL1        0.0407
      4 C          63.6972   85.3833   13.7021 C.ar    1  UNL1        0.1469
      5 O          63.2639   86.5375   12.8477 O.2     1  UNL1       -0.4518
      6 C          63.4257   83.9335   13.4293 C.ar    1  UNL1        0.0537
      7 C          63.1391   83.4745   12.0303 C.ar    1  UNL1        0.0062
      8 C          62.8677   82.0247   11.7575 C.ar    1  UNL1        0.0208
      9 C          62.8829   81.0340   12.8836 C.ar    1  UNL1        0.0989
     10 N          63.1695   81.4930   14.2826 N.ar    1  UNL1       -0.2422
     11 C          63.4409   82.9427   14.5554 C.ar    1  UNL1        0.1019
     12 O          61.2756   88.4613   11.9300 O.2     1  UNL1       -0.4086
     13 N          62.3009   89.5235   12.1958 N.2     1  UNL1       -0.0814
     14 C          63.5373   89.1933   12.9783 C.2     1  UNL1        0.1771
     15 H          60.5032   88.6676   11.4412 H       1  UNL1        0.3278
@<TRIPOS>BOND
     1    12    13    1
     2    13    14    2
     3    14     1    1
     4     1     2   ar
     5     2     3   ar
     6     3     4   ar
     7     4     6    1
     8     6     7   ar
     9     7     8   ar
    10     8     9   ar
    11     9    10   ar
    12    10    11   ar
    13     4     5   ar
    14     5     1   ar
    15    11     6   ar
    16    12    15    1
@<TRIPOS>MOLECULE
*****
 15 16 0 0 0
SMALL
GASTEIGER

@<TRIPOS>ATOM
      1 C          63.6949   84.4280   13.2530 C.ar    1  UNL1        0.1677
      2 C          63.3964   83.5414   12.0804 C.ar    1  UNL1        0.0424
      3 C          62.6899   84.3649   11.0447 C.ar    1  UNL1        0.0407
      4 C          62.5517   85.7604   11.5772 C.ar    1  UNL1        0.1469
      5 O          63.1728   85.7994   12.9420 O.2     1  UNL1       -0.4518
      6 C          61.9058   86.9143   10.8691 C.ar    1  UNL1        0.0537
      7 C          62.4164   88.3080   11.0857 C.ar    1  UNL1        0.0062
      8 C          61.7704   89.4618   10.3776 C.ar    1  UNL1        0.0208
      9 C          60.6139   89.2220    9.4530 C.ar    1  UNL1        0.0989
     10 N          60.1033   87.8283    9.2365 N.ar    1  UNL1       -0.2422
     11 C          60.7492   86.6745    9.9446 C.ar    1  UNL1        0.1019
     12 O          62.4330   82.4035   15.0721 O.2     1  UNL1       -0.4086
     13 N          63.7620   83.0033   15.4246 N.2     1  UNL1       -0.0814
     14 C          64.3929   84.0155   14.5150 C.2     1  UNL1        0.1771
     15 H          62.0389   81.7712   15.6403 H       1  UNL1        0.3278
@<TRIPOS>BOND
     1    12    13    1
     2    13    14    2
     3    14     1    1
     4     1     2   ar
     5     2     3   ar
     6     3     4   ar
     7     4     6    1
     8     6     7   ar
     9     7     8   ar
    10     8     9   ar
    11     9    10   ar
    12    10    11   ar
    13     4     5   ar
    14     5     1   ar
    15    11     6   ar
    16    12    15    1
