@<TRIPOS>MOLECULE
*****
 35 38 0 0 0
SMALL
GASTEIGER

@<TRIPOS>ATOM
      1 C          59.0535   95.0772   -0.1457 C.ar    1  UNL1       -0.0044
      2 C          58.6505   93.6327   -0.1722 C.ar    1  UNL1       -0.0014
      3 C          58.9899   92.7380    0.9829 C.ar    1  UNL1        0.0144
      4 C          59.7322   93.2879    2.1646 C.ar    1  UNL1        0.0516
      5 C          60.1353   94.7325    2.1912 C.ar    1  UNL1        0.0144
      6 C          59.7959   95.6272    1.0361 C.ar    1  UNL1       -0.0014
      7 N          60.0715   92.3932    3.3198 N.am    1  UNL1       -0.2681
      8 C          58.9785   91.8322    4.1803 C.2     1  UNL1        0.3077
      9 O          57.5461   92.1658    3.8856 O.2     1  UNL1       -0.2522
     10 N          59.3178   90.9375    5.3354 N.am    1  UNL1       -0.2632
     11 C          58.5267   90.2120    6.3833 C.3     1  UNL1        0.1010
     12 C          59.7977   89.6723    6.9691 C.3     1  UNL1        0.0636
     13 C          60.5889   90.3977    5.9213 C.3     1  UNL1        0.1010
     14 H          61.0117   92.1742    3.5132 H       1  UNL1        0.1564
     15 C          60.1371   88.7776    8.1242 C.ar    1  UNL1        0.0001
     16 C          60.1170   87.2879    7.9502 C.ar    1  UNL1        0.0002
     17 C          60.4564   86.3932    9.1054 C.ar    1  UNL1        0.0336
     18 C          60.8158   86.9882   10.4345 C.ar    1  UNL1        0.1254
     19 N          61.1551   86.0936   11.5897 N.pl3   1  UNL1       -0.3426
     20 N          60.8358   88.4779   10.6085 N.ar    1  UNL1       -0.2299
     21 C          60.4965   89.3726    9.4534 C.ar    1  UNL1        0.0961
     22 H          61.1419   85.1158   11.4755 H       1  UNL1        0.1437
     23 H          61.3910   86.4841   12.4621 H       1  UNL1        0.1437
     24 C          59.8098   96.5940   -2.1148 C.3     1  UNL1        0.0262
     25 C          58.7142   95.9719   -1.3009 C.3     1  UNL1        0.0941
     26 N          57.2791   96.2445   -1.6421 N.am    1  UNL1       -0.3022
     27 C          56.5619   95.3663   -2.6241 C.2     1  UNL1        0.2223
     28 O          57.2796   94.2156   -3.2649 O.2     1  UNL1       -0.2751
     29 H          56.8080   96.9997   -1.2215 H       1  UNL1        0.1497
     30 C          55.1268   95.6389   -2.9653 C.3     1  UNL1        0.0815
     31 C          54.0724   95.5456   -1.9025 C.3     1  UNL1        0.0412
     32 C          52.6375   95.8182   -2.2438 C.3     1  UNL1        0.1427
     33 O          52.2569   96.1840   -3.6478 O.3     1  UNL1       -0.3538
     34 C          53.3112   96.2772   -4.7106 C.3     1  UNL1        0.1427
     35 C          54.7462   96.0046   -4.3694 C.3     1  UNL1        0.0412
@<TRIPOS>BOND
     1    25    24    1
     2    25    26    1
     3    26    27   am
     4    27    28    2
     5    27    30    1
     6    30    31    1
     7    31    32    1
     8    32    33    1
     9    33    34    1
    10    34    35    1
    11    25     1    1
    12     1     2   ar
    13     2     3   ar
    14     3     4   ar
    15     4     7    1
    16     7     8   am
    17     8     9    2
    18     8    10   am
    19    10    11    1
    20    11    12    1
    21    12    15    1
    22    15    16   ar
    23    16    17   ar
    24    17    18   ar
    25    18    19    1
    26    18    20   ar
    27    20    21   ar
    28    12    13    1
    29     4     5   ar
    30     5     6   ar
    31    35    30    1
    32     6     1   ar
    33    13    10    1
    34    21    15   ar
    35    26    29    1
    36     7    14    1
    37    19    22    1
    38    19    23    1
@<TRIPOS>MOLECULE
*****
 35 38 0 0 0
SMALL
GASTEIGER

@<TRIPOS>ATOM
      1 C          60.0651   88.2893    9.3118 C.ar    1  UNL1       -0.0044
      2 C          60.5020   89.7207    9.2104 C.ar    1  UNL1       -0.0014
      3 C          60.2543   90.4929    7.9486 C.ar    1  UNL1        0.0144
      4 C          59.5696   89.8338    6.7881 C.ar    1  UNL1        0.0516
      5 C          59.1326   88.4023    6.8895 C.ar    1  UNL1        0.0144
      6 C          59.3804   87.6301    8.1513 C.ar    1  UNL1       -0.0014
      7 N          59.3218   90.6060    5.5262 N.am    1  UNL1       -0.2681
      8 C          60.4749   91.1938    4.7681 C.2     1  UNL1        0.3077
      9 O          61.8757   91.0095    5.2717 O.2     1  UNL1       -0.2522
     10 N          60.2271   91.9660    3.5062 N.am    1  UNL1       -0.2632
     11 C          61.0946   92.6768    2.5100 C.3     1  UNL1        0.1010
     12 C          59.8767   93.0581    1.7217 C.3     1  UNL1        0.0636
     13 C          59.0092   92.3474    2.7178 C.3     1  UNL1        0.1010
     14 H          58.4024   90.7270    5.1957 H       1  UNL1        0.1564
     15 C          59.6289   93.8303    0.4598 C.ar    1  UNL1        0.0001
     16 C          59.5759   93.1163   -0.8583 C.ar    1  UNL1        0.0002
     17 C          59.3281   93.8886   -2.1201 C.ar    1  UNL1        0.0336
     18 C          59.1334   95.3748   -2.0639 C.ar    1  UNL1        0.1254
     19 N          58.8857   96.1470   -3.3258 N.pl3   1  UNL1       -0.3426
     20 N          59.1865   96.0888   -0.7458 N.ar    1  UNL1       -0.2299
     21 C          59.4342   95.3165    0.5160 C.ar    1  UNL1        0.0961
     22 H          58.8508   95.6783   -4.1909 H       1  UNL1        0.1437
     23 H          58.7579   97.1225   -3.2889 H       1  UNL1        0.1437
     24 C          59.7947   88.0337   11.8831 C.3     1  UNL1        0.0262
     25 C          60.3129   87.5171   10.5737 C.3     1  UNL1        0.0941
     26 N          61.0789   86.2283   10.5261 N.am    1  UNL1       -0.3022
     27 C          62.3169   86.0605   11.3561 C.2     1  UNL1        0.2223
     28 O          62.7891   87.1815   12.2338 O.2     1  UNL1       -0.2751
     29 H          60.7690   85.4925    9.9501 H       1  UNL1        0.1497
     30 C          63.0829   84.7716   11.3086 C.3     1  UNL1        0.0815
     31 C          63.4909   84.0941   12.5831 C.3     1  UNL1        0.0412
     32 C          64.2568   82.8053   12.5354 C.3     1  UNL1        0.1427
     33 O          64.6148   82.1941   11.2133 O.3     1  UNL1       -0.3538
     34 C          64.2068   82.8715    9.9387 C.3     1  UNL1        0.1427
     35 C          63.4408   84.1603    9.9864 C.3     1  UNL1        0.0412
@<TRIPOS>BOND
     1    25    24    1
     2    25    26    1
     3    26    27   am
     4    27    28    2
     5    27    30    1
     6    30    31    1
     7    31    32    1
     8    32    33    1
     9    33    34    1
    10    34    35    1
    11    25     1    1
    12     1     2   ar
    13     2     3   ar
    14     3     4   ar
    15     4     7    1
    16     7     8   am
    17     8     9    2
    18     8    10   am
    19    10    11    1
    20    11    12    1
    21    12    15    1
    22    15    16   ar
    23    16    17   ar
    24    17    18   ar
    25    18    19    1
    26    18    20   ar
    27    20    21   ar
    28    12    13    1
    29     4     5   ar
    30     5     6   ar
    31    35    30    1
    32     6     1   ar
    33    13    10    1
    34    21    15   ar
    35    26    29    1
    36     7    14    1
    37    19    22    1
    38    19    23    1
@<TRIPOS>MOLECULE
*****
 35 38 0 0 0
SMALL
GASTEIGER

@<TRIPOS>ATOM
      1 C          59.5413   94.7851   -0.7387 C.ar    1  UNL1       -0.0044
      2 C          59.5744   93.2877   -0.8211 C.ar    1  UNL1       -0.0014
      3 C          59.8334   92.4742    0.4122 C.ar    1  UNL1        0.0144
      4 C          60.0595   93.1581    1.7280 C.ar    1  UNL1        0.0516
      5 C          60.0265   94.6555    1.8104 C.ar    1  UNL1        0.0144
      6 C          59.7674   95.4690    0.5771 C.ar    1  UNL1       -0.0014
      7 N          60.3186   92.3446    2.9613 N.am    1  UNL1       -0.2681
      8 C          59.1696   91.8566    3.7929 C.2     1  UNL1        0.3077
      9 O          57.7615   92.1821    3.3912 O.2     1  UNL1       -0.2522
     10 N          59.4287   91.0431    5.0263 N.am    1  UNL1       -0.2632
     11 C          58.5679   90.4015    6.0739 C.3     1  UNL1        0.1010
     12 C          59.7950   89.8927    6.7704 C.3     1  UNL1        0.0636
     13 C          60.6558   90.5342    5.7229 C.3     1  UNL1        0.1010
     14 H          61.2427   92.1310    3.2249 H       1  UNL1        0.1564
     15 C          60.0541   89.0792    8.0038 C.ar    1  UNL1        0.0001
     16 C          59.7845   87.6036    7.9993 C.ar    1  UNL1        0.0002
     17 C          60.0436   86.7901    9.2327 C.ar    1  UNL1        0.0336
     18 C          60.5723   87.4522   10.4704 C.ar    1  UNL1        0.1254
     19 N          60.8313   86.6387   11.7038 N.pl3   1  UNL1       -0.3426
     20 N          60.8419   88.9277   10.4749 N.ar    1  UNL1       -0.2299
     21 C          60.5828   89.7412    9.2415 C.ar    1  UNL1        0.0961
     22 H          60.6544   85.6702   11.7008 H       1  UNL1        0.1437
     23 H          61.1784   87.0732   12.5162 H       1  UNL1        0.1437
     24 C          60.0623   96.8558   -2.2188 C.3     1  UNL1        0.0262
     25 C          59.2823   95.5985   -1.9721 C.3     1  UNL1        0.0941
     26 N          58.2431   95.1548   -2.9586 N.am    1  UNL1       -0.3022
     27 C          58.6510   94.4001   -4.1891 C.2     1  UNL1        0.2223
     28 O          60.0980   94.0892   -4.4331 O.2     1  UNL1       -0.2751
     29 H          57.2934   95.3588   -2.7985 H       1  UNL1        0.1497
     30 C          57.6118   93.9563   -5.1757 C.3     1  UNL1        0.0815
     31 C          57.3300   94.7867   -6.3927 C.3     1  UNL1        0.0412
     32 C          56.2909   94.3429   -7.3792 C.3     1  UNL1        0.1427
     33 O          55.5336   93.0687   -7.1487 O.3     1  UNL1       -0.3538
     34 C          55.8155   92.2384   -5.9318 C.3     1  UNL1        0.1427
     35 C          56.8546   92.6822   -4.9453 C.3     1  UNL1        0.0412
@<TRIPOS>BOND
     1    25    24    1
     2    25    26    1
     3    26    27   am
     4    27    28    2
     5    27    30    1
     6    30    31    1
     7    31    32    1
     8    32    33    1
     9    33    34    1
    10    34    35    1
    11    25     1    1
    12     1     2   ar
    13     2     3   ar
    14     3     4   ar
    15     4     7    1
    16     7     8   am
    17     8     9    2
    18     8    10   am
    19    10    11    1
    20    11    12    1
    21    12    15    1
    22    15    16   ar
    23    16    17   ar
    24    17    18   ar
    25    18    19    1
    26    18    20   ar
    27    20    21   ar
    28    12    13    1
    29     4     5   ar
    30     5     6   ar
    31    35    30    1
    32     6     1   ar
    33    13    10    1
    34    21    15   ar
    35    26    29    1
    36     7    14    1
    37    19    22    1
    38    19    23    1
@<TRIPOS>MOLECULE
*****
 35 38 0 0 0
SMALL
GASTEIGER

@<TRIPOS>ATOM
      1 C          60.0498   88.3172    9.2978 C.ar    1  UNL1       -0.0044
      2 C          59.3758   87.6511    8.1351 C.ar    1  UNL1       -0.0014
      3 C          59.1330   88.4180    6.8690 C.ar    1  UNL1        0.0144
      4 C          59.5642   89.8509    6.7656 C.ar    1  UNL1        0.0516
      5 C          60.2383   90.5170    7.9284 C.ar    1  UNL1        0.0144
      6 C          60.4811   89.7502    9.1945 C.ar    1  UNL1       -0.0014
      7 N          59.3214   90.6177    5.4995 N.am    1  UNL1       -0.2681
      8 C          60.4773   91.2038    4.7443 C.2     1  UNL1        0.3077
      9 O          61.8759   91.0230    5.2551 O.2     1  UNL1       -0.2522
     10 N          60.2345   91.9707    3.4782 N.am    1  UNL1       -0.2632
     11 C          61.1057   92.6784    2.4831 C.3     1  UNL1        0.1010
     12 C          59.8911   93.0552    1.6877 C.3     1  UNL1        0.0636
     13 C          59.0198   92.3475    2.6827 C.3     1  UNL1        0.1010
     14 H          58.4034   90.7364    5.1643 H       1  UNL1        0.1564
     15 C          59.6483   93.8220    0.4216 C.ar    1  UNL1        0.0001
     16 C          59.3453   95.2899    0.4802 C.ar    1  UNL1        0.0002
     17 C          59.1025   96.0568   -0.7859 C.ar    1  UNL1        0.0336
     18 C          59.1626   95.3557   -2.1106 C.ar    1  UNL1        0.1254
     19 N          58.9198   96.1226   -3.3767 N.pl3   1  UNL1       -0.3426
     20 N          59.4656   93.8878   -2.1692 N.ar    1  UNL1       -0.2299
     21 C          59.7084   93.1210   -0.9031 C.ar    1  UNL1        0.0961
     22 H          58.7210   97.0860   -3.3382 H       1  UNL1        0.1437
     23 H          58.9593   95.6625   -4.2461 H       1  UNL1        0.1437
     24 C          59.7766   88.0766   11.8702 C.3     1  UNL1        0.0262
     25 C          60.2927   87.5503   10.5639 C.3     1  UNL1        0.0941
     26 N          61.0516   86.2571   10.5236 N.am    1  UNL1       -0.3022
     27 C          62.3116   86.1017   11.3224 C.2     1  UNL1        0.2223
     28 O          62.8128   87.2396   12.1615 O.2     1  UNL1       -0.2751
     29 H          60.7227   85.5102    9.9728 H       1  UNL1        0.1497
     30 C          63.0706   84.8084   11.2821 C.3     1  UNL1        0.0815
     31 C          63.4266   84.1886    9.9634 C.3     1  UNL1        0.0412
     32 C          64.1856   82.8954    9.9231 C.3     1  UNL1        0.1427
     33 O          64.5884   82.2221   11.2016 O.3     1  UNL1       -0.3538
     34 C          64.2324   82.8420   12.5202 C.3     1  UNL1        0.1427
     35 C          63.4735   84.1351   12.5605 C.3     1  UNL1        0.0412
@<TRIPOS>BOND
     1    25    24    1
     2    25    26    1
     3    26    27   am
     4    27    28    2
     5    27    30    1
     6    30    31    1
     7    31    32    1
     8    32    33    1
     9    33    34    1
    10    34    35    1
    11    25     1    1
    12     1     2   ar
    13     2     3   ar
    14     3     4   ar
    15     4     7    1
    16     7     8   am
    17     8     9    2
    18     8    10   am
    19    10    11    1
    20    11    12    1
    21    12    15    1
    22    15    16   ar
    23    16    17   ar
    24    17    18   ar
    25    18    19    1
    26    18    20   ar
    27    20    21   ar
    28    12    13    1
    29     4     5   ar
    30     5     6   ar
    31    35    30    1
    32     6     1   ar
    33    13    10    1
    34    21    15   ar
    35    26    29    1
    36     7    14    1
    37    19    22    1
    38    19    23    1
@<TRIPOS>MOLECULE
*****
 35 38 0 0 0
SMALL
GASTEIGER

@<TRIPOS>ATOM
      1 C          65.5787   91.9108   13.7884 C.ar    1  UNL1       -0.0044
      2 C          64.7615   91.5241   12.5915 C.ar    1  UNL1       -0.0014
      3 C          64.1118   90.1735   12.5316 C.ar    1  UNL1        0.0144
      4 C          64.2792   89.2095   13.6685 C.ar    1  UNL1        0.0516
      5 C          65.0965   89.5961   14.8655 C.ar    1  UNL1        0.0144
      6 C          65.7462   90.9468   14.9255 C.ar    1  UNL1       -0.0014
      7 N          63.6295   87.8588   13.6085 N.am    1  UNL1       -0.2681
      8 C          64.2831   86.6821   14.2703 C.2     1  UNL1        0.3077
      9 O          65.5865   86.8560   14.9920 O.2     1  UNL1       -0.2522
     10 N          63.6334   85.3314   14.2103 N.am    1  UNL1       -0.2632
     11 C          63.9730   83.9669   14.7327 C.3     1  UNL1        0.1010
     12 C          62.7146   83.4214   14.1255 C.3     1  UNL1        0.0636
     13 C          62.3750   84.7858   13.6031 C.3     1  UNL1        0.1010
     14 H          62.7740   87.7447   13.1348 H       1  UNL1        0.1564
     15 C          62.0648   82.0707   14.0655 C.ar    1  UNL1        0.0001
     16 C          62.8630   80.8725   13.6449 C.ar    1  UNL1        0.0002
     17 C          62.2133   79.5218   13.5849 C.ar    1  UNL1        0.0336
     18 C          60.7653   79.3694   13.9456 C.ar    1  UNL1        0.1254
     19 N          60.1156   78.0188   13.8856 N.pl3   1  UNL1       -0.3426
     20 N          59.9671   80.5677   14.3663 N.ar    1  UNL1       -0.2299
     21 C          60.6169   81.9183   14.4262 C.ar    1  UNL1        0.0961
     22 H          60.6395   77.2323   13.6095 H       1  UNL1        0.1437
     23 H          59.1652   77.9187   14.1224 H       1  UNL1        0.1437
     24 C          67.0436   93.6490   15.0464 C.3     1  UNL1        0.0262
     25 C          66.2285   93.2614   13.8484 C.3     1  UNL1        0.0941
     26 N          66.0630   94.2245   12.7103 N.am    1  UNL1       -0.3022
     27 C          66.7523   93.9665   11.4033 C.2     1  UNL1        0.2223
     28 O          67.6071   92.7455   11.2343 O.2     1  UNL1       -0.2751
     29 H          65.5020   95.0259   12.8211 H       1  UNL1        0.1497
     30 C          66.5869   94.9295   10.2652 C.3     1  UNL1        0.0815
     31 C          65.4350   95.8902   10.2570 C.3     1  UNL1        0.0412
     32 C          65.2696   96.8532    9.1189 C.3     1  UNL1        0.1427
     33 O          66.2562   96.8555    7.9890 O.3     1  UNL1       -0.3538
     34 C          67.4081   95.8948    7.9972 C.3     1  UNL1        0.1427
     35 C          67.5734   94.9318    9.1352 C.3     1  UNL1        0.0412
@<TRIPOS>BOND
     1    25    24    1
     2    25    26    1
     3    26    27   am
     4    27    28    2
     5    27    30    1
     6    30    31    1
     7    31    32    1
     8    32    33    1
     9    33    34    1
    10    34    35    1
    11    25     1    1
    12     1     2   ar
    13     2     3   ar
    14     3     4   ar
    15     4     7    1
    16     7     8   am
    17     8     9    2
    18     8    10   am
    19    10    11    1
    20    11    12    1
    21    12    15    1
    22    15    16   ar
    23    16    17   ar
    24    17    18   ar
    25    18    19    1
    26    18    20   ar
    27    20    21   ar
    28    12    13    1
    29     4     5   ar
    30     5     6   ar
    31    35    30    1
    32     6     1   ar
    33    13    10    1
    34    21    15   ar
    35    26    29    1
    36     7    14    1
    37    19    22    1
    38    19    23    1
@<TRIPOS>MOLECULE
*****
 35 38 0 0 0
SMALL
GASTEIGER

@<TRIPOS>ATOM
      1 C          64.5685   90.9719   14.2084 C.ar    1  UNL1       -0.0044
      2 C          64.9458   89.7844   15.0434 C.ar    1  UNL1       -0.0014
      3 C          64.6138   88.3998   14.5716 C.ar    1  UNL1        0.0144
      4 C          63.9043   88.2027   13.2648 C.ar    1  UNL1        0.0516
      5 C          63.5269   89.3903   12.4297 C.ar    1  UNL1        0.0144
      6 C          63.8590   90.7749   12.9015 C.ar    1  UNL1       -0.0014
      7 N          63.5722   86.8181   12.7930 N.am    1  UNL1       -0.2681
      8 C          64.2362   85.6309   13.4252 C.2     1  UNL1        0.3077
      9 O          65.2321   85.8284   14.5293 O.2     1  UNL1       -0.2522
     10 N          63.9041   84.2463   12.9534 N.am    1  UNL1       -0.2632
     11 C          64.3470   82.8632   13.3287 C.3     1  UNL1        0.1010
     12 C          63.4345   82.2882   12.2862 C.3     1  UNL1        0.0636
     13 C          62.9916   83.6713   11.9109 C.3     1  UNL1        0.1010
     14 H          62.9185   86.6886   12.0683 H       1  UNL1        0.1564
     15 C          63.1024   80.9036   11.8144 C.ar    1  UNL1        0.0001
     16 C          63.2071   80.5625   10.3575 C.ar    1  UNL1        0.0002
     17 C          62.8750   79.1779    9.8856 C.ar    1  UNL1        0.0336
     18 C          62.4382   78.1344   10.8707 C.ar    1  UNL1        0.1254
     19 N          62.1061   76.7498   10.3989 N.pl3   1  UNL1       -0.3426
     20 N          62.3335   78.4756   12.3276 N.ar    1  UNL1       -0.2299
     21 C          62.6656   79.8602   12.7994 C.ar    1  UNL1        0.0961
     22 H          62.1749   76.5259    9.4427 H       1  UNL1        0.1437
     23 H          61.8195   76.0650   11.0455 H       1  UNL1        0.1437
     24 C          64.9568   92.6550   16.1491 C.3     1  UNL1        0.0262
     25 C          64.9006   92.3565   14.6802 C.3     1  UNL1        0.0941
     26 N          65.1764   93.4427   13.6831 N.am    1  UNL1       -0.3022
     27 C          66.2553   93.2622   12.6567 C.2     1  UNL1        0.2223
     28 O          67.0584   91.9957   12.6275 O.2     1  UNL1       -0.2751
     29 H          64.6493   94.2740   13.7022 H       1  UNL1        0.1497
     30 C          66.5311   94.3484   11.6596 C.3     1  UNL1        0.0815
     31 C          66.1695   95.7688   11.9784 C.3     1  UNL1        0.0412
     32 C          66.4453   96.8548   10.9813 C.3     1  UNL1        0.1427
     33 O          67.0828   96.5205    9.6653 O.3     1  UNL1       -0.3538
     34 C          67.4444   95.1001    9.3464 C.3     1  UNL1        0.1427
     35 C          67.1686   94.0141   10.3436 C.3     1  UNL1        0.0412
@<TRIPOS>BOND
     1    25    24    1
     2    25    26    1
     3    26    27   am
     4    27    28    2
     5    27    30    1
     6    30    31    1
     7    31    32    1
     8    32    33    1
     9    33    34    1
    10    34    35    1
    11    25     1    1
    12     1     2   ar
    13     2     3   ar
    14     3     4   ar
    15     4     7    1
    16     7     8   am
    17     8     9    2
    18     8    10   am
    19    10    11    1
    20    11    12    1
    21    12    15    1
    22    15    16   ar
    23    16    17   ar
    24    17    18   ar
    25    18    19    1
    26    18    20   ar
    27    20    21   ar
    28    12    13    1
    29     4     5   ar
    30     5     6   ar
    31    35    30    1
    32     6     1   ar
    33    13    10    1
    34    21    15   ar
    35    26    29    1
    36     7    14    1
    37    19    22    1
    38    19    23    1
