@<TRIPOS>MOLECULE
*****
 29 33 0 0 0
SMALL
GASTEIGER

@<TRIPOS>ATOM
      1 O          61.2437   87.4856    9.0735 O.2     1  UNL1       -0.2638
      2 C          62.0134   87.7129   10.3408 C.2     1  UNL1        0.3160
      3 N          62.4700   89.0949   10.7033 N.am    1  UNL1       -0.1721
      4 C          63.2396   89.3222   11.9707 C.ar    1  UNL1        0.0771
      5 C          63.6963   90.7042   12.3332 C.ar    1  UNL1        0.0125
      6 C          64.4659   90.9314   13.6005 C.ar    1  UNL1       -0.0206
      7 C          64.7789   89.7766   14.5052 C.ar    1  UNL1       -0.0041
      8 C          64.3222   88.3946   14.1427 C.ar    1  UNL1        0.0048
      9 C          63.5526   88.1674   12.8754 C.ar    1  UNL1        0.0623
     10 C          63.0959   86.7853   12.5128 C.2     1  UNL1        0.2419
     11 N          63.2549   85.4627   13.2021 N.2     1  UNL1       -0.0302
     12 C          62.5835   84.4179   12.3608 C.2     1  UNL1        0.3765
     13 N          62.0096   85.0949   11.1516 N.2     1  UNL1       -0.0256
     14 C          62.3263   86.5581   11.2455 C.2     1  UNL1        0.2907
     15 C          62.5005   82.9532   12.6739 C.ar    1  UNL1        0.0989
     16 C          61.8432   82.4932   13.9412 C.ar    1  UNL1        0.0085
     17 C          61.7603   81.0286   14.2542 C.ar    1  UNL1        0.0003
     18 C          62.3347   80.0240   13.2999 C.ar    1  UNL1        0.0009
     19 C          62.9921   80.4840   12.0325 C.ar    1  UNL1        0.0116
     20 C          63.0750   81.9486   11.7195 C.ar    1  UNL1        0.0651
     21 CL         63.7324   82.4087   10.4521 Cl      1  UNL1       -0.0820
     22 C          64.9226   92.3135   13.9631 C.3     1  UNL1        0.0311
     23 C          66.3072   92.7644   13.6031 C.3     1  UNL1        0.0310
     24 C          66.6148   93.1938   12.1993 C.ar    1  UNL1       -0.0218
     25 C          67.3170   92.2541   11.2644 C.ar    1  UNL1       -0.0043
     26 C          67.6247   92.6836    9.8604 C.ar    1  UNL1       -0.0003
     27 C          67.2302   94.0527    9.3915 C.ar    1  UNL1       -0.0000
     28 C          66.5280   94.9923   10.3263 C.ar    1  UNL1       -0.0003
     29 C          66.2203   94.5629   11.7302 C.ar    1  UNL1       -0.0043
@<TRIPOS>BOND
     1     1     2    2
     2     2     3    1
     3     3     4    2
     4     4     5   ar
     5     5     6   ar
     6     6    22    1
     7    22    23    1
     8    23    24    1
     9    24    25   ar
    10    25    26   ar
    11    26    27   ar
    12    27    28   ar
    13    28    29   ar
    14     6     7   ar
    15     7     8   ar
    16     8     9   ar
    17     9    10    2
    18    10    11    1
    19    11    12    2
    20    12    15    1
    21    15    16   ar
    22    16    17   ar
    23    17    18   ar
    24    18    19   ar
    25    19    20   ar
    26    20    21    1
    27    12    13    1
    28    13    14    2
    29    14     2    1
    30     9     4   ar
    31    14    10    1
    32    29    24   ar
    33    20    15   ar
@<TRIPOS>MOLECULE
*****
 29 33 0 0 0
SMALL
GASTEIGER

@<TRIPOS>ATOM
      1 O          63.0446   89.8076   12.4020 O.2     1  UNL1       -0.2638
      2 C          62.2976   89.0487   11.3456 C.2     1  UNL1        0.3160
      3 N          61.5826   89.7890   10.2544 N.am    1  UNL1       -0.1721
      4 C          60.8355   89.0301    9.1980 C.ar    1  UNL1        0.0771
      5 C          60.1205   89.7704    8.1068 C.ar    1  UNL1        0.0125
      6 C          59.3735   89.0115    7.0505 C.ar    1  UNL1       -0.0206
      7 C          59.3415   87.5122    7.0853 C.ar    1  UNL1       -0.0041
      8 C          60.0564   86.7719    8.1764 C.ar    1  UNL1        0.0048
      9 C          60.8035   87.5308    9.2328 C.ar    1  UNL1        0.0623
     10 C          61.5185   86.7905   10.3240 C.2     1  UNL1        0.2419
     11 N          61.6626   85.3263   10.6158 N.2     1  UNL1       -0.0302
     12 C          62.4988   85.1802   11.8526 C.2     1  UNL1        0.3765
     13 N          62.8714   86.5542   12.3251 N.2     1  UNL1       -0.0256
     14 C          62.2655   87.5494   11.3804 C.2     1  UNL1        0.2907
     15 C          62.8931   83.8872   12.5027 C.ar    1  UNL1        0.0989
     16 C          62.3785   83.5477   13.8701 C.ar    1  UNL1        0.0085
     17 C          62.7728   82.2546   14.5201 C.ar    1  UNL1        0.0003
     18 C          63.6817   81.3011   13.8027 C.ar    1  UNL1        0.0009
     19 C          64.1963   81.6406   12.4353 C.ar    1  UNL1        0.0116
     20 C          63.8020   82.9336   11.7853 C.ar    1  UNL1        0.0651
     21 CL         64.3166   83.2732   10.4178 Cl      1  UNL1       -0.0820
     22 C          58.6585   89.7518    5.9592 C.3     1  UNL1        0.0311
     23 C          58.9357   91.2088    5.7350 C.3     1  UNL1        0.0310
     24 C          59.8772   91.6344    4.6477 C.ar    1  UNL1       -0.0218
     25 C          59.4208   92.6028    3.5970 C.ar    1  UNL1       -0.0043
     26 C          60.3623   93.0285    2.5096 C.ar    1  UNL1       -0.0003
     27 C          61.7602   92.4858    2.4729 C.ar    1  UNL1       -0.0000
     28 C          62.2166   91.5174    3.5236 C.ar    1  UNL1       -0.0003
     29 C          61.2752   91.0917    4.6109 C.ar    1  UNL1       -0.0043
@<TRIPOS>BOND
     1     1     2    2
     2     2     3    1
     3     3     4    2
     4     4     5   ar
     5     5     6   ar
     6     6    22    1
     7    22    23    1
     8    23    24    1
     9    24    25   ar
    10    25    26   ar
    11    26    27   ar
    12    27    28   ar
    13    28    29   ar
    14     6     7   ar
    15     7     8   ar
    16     8     9   ar
    17     9    10    2
    18    10    11    1
    19    11    12    2
    20    12    15    1
    21    15    16   ar
    22    16    17   ar
    23    17    18   ar
    24    18    19   ar
    25    19    20   ar
    26    20    21    1
    27    12    13    1
    28    13    14    2
    29    14     2    1
    30     9     4   ar
    31    14    10    1
    32    29    24   ar
    33    20    15   ar
@<TRIPOS>MOLECULE
*****
 29 33 0 0 0
SMALL
GASTEIGER

@<TRIPOS>ATOM
      1 O          60.8762   86.8531    8.4937 O.2     1  UNL1       -0.2638
      2 C          61.6427   87.2504    9.7203 C.2     1  UNL1        0.3160
      3 N          62.0295   88.6842    9.9314 N.am    1  UNL1       -0.1721
      4 C          62.7960   89.0815   11.1580 C.ar    1  UNL1        0.0771
      5 C          63.1828   90.5153   11.3690 C.ar    1  UNL1        0.0125
      6 C          63.9493   90.9126   12.5957 C.ar    1  UNL1       -0.0206
      7 C          64.3291   89.8760   13.6112 C.ar    1  UNL1       -0.0041
      8 C          63.9423   88.4422   13.4002 C.ar    1  UNL1        0.0048
      9 C          63.1758   88.0450   12.1736 C.ar    1  UNL1        0.0623
     10 C          62.7889   86.6111   11.9625 C.2     1  UNL1        0.2419
     11 N          63.0219   85.3775   12.7834 N.2     1  UNL1       -0.0302
     12 C          62.3994   84.2177   12.0640 C.2     1  UNL1        0.3765
     13 N          61.7817   84.7347   10.7986 N.2     1  UNL1       -0.0256
     14 C          62.0224   86.2139   10.7359 C.2     1  UNL1        0.2907
     15 C          62.3953   82.7914   12.5286 C.ar    1  UNL1        0.0989
     16 C          61.7840   82.4352   13.8512 C.ar    1  UNL1        0.0085
     17 C          61.7800   81.0090   14.3157 C.ar    1  UNL1        0.0003
     18 C          62.3872   79.9390   13.4575 C.ar    1  UNL1        0.0009
     19 C          62.9984   80.2952   12.1349 C.ar    1  UNL1        0.0116
     20 C          63.0025   81.7214   11.6704 C.ar    1  UNL1        0.0651
     21 CL         63.6137   82.0778   10.3477 Cl      1  UNL1       -0.0820
     22 C          64.3362   92.3464   12.8067 C.3     1  UNL1        0.0311
     23 C          65.7678   92.7673   12.6541 C.3     1  UNL1        0.0310
     24 C          66.7131   92.6448   13.8122 C.ar    1  UNL1       -0.0218
     25 C          68.1479   92.2781   13.5737 C.ar    1  UNL1       -0.0043
     26 C          69.0932   92.1557   14.7320 C.ar    1  UNL1       -0.0003
     27 C          68.6037   92.3999   16.1286 C.ar    1  UNL1       -0.0000
     28 C          67.1689   92.7666   16.3671 C.ar    1  UNL1       -0.0003
     29 C          66.2236   92.8891   15.2090 C.ar    1  UNL1       -0.0043
@<TRIPOS>BOND
     1     1     2    2
     2     2     3    1
     3     3     4    2
     4     4     5   ar
     5     5     6   ar
     6     6    22    1
     7    22    23    1
     8    23    24    1
     9    24    25   ar
    10    25    26   ar
    11    26    27   ar
    12    27    28   ar
    13    28    29   ar
    14     6     7   ar
    15     7     8   ar
    16     8     9   ar
    17     9    10    2
    18    10    11    1
    19    11    12    2
    20    12    15    1
    21    15    16   ar
    22    16    17   ar
    23    17    18   ar
    24    18    19   ar
    25    19    20   ar
    26    20    21    1
    27    12    13    1
    28    13    14    2
    29    14     2    1
    30     9     4   ar
    31    14    10    1
    32    29    24   ar
    33    20    15   ar
@<TRIPOS>MOLECULE
*****
 29 33 0 0 0
SMALL
GASTEIGER

@<TRIPOS>ATOM
      1 O          67.6347   93.8651   15.4669 O.2     1  UNL1       -0.2638
      2 C          66.7434   92.9172   14.7203 C.2     1  UNL1        0.3160
      3 N          66.2626   91.6604   15.3829 N.am    1  UNL1       -0.1721
      4 C          65.3714   90.7126   14.6363 C.ar    1  UNL1        0.0771
      5 C          64.8906   89.4558   15.2990 C.ar    1  UNL1        0.0125
      6 C          63.9994   88.5080   14.5524 C.ar    1  UNL1       -0.0206
      7 C          63.5890   88.8170   13.1431 C.ar    1  UNL1       -0.0041
      8 C          64.0698   90.0739   12.4804 C.ar    1  UNL1        0.0048
      9 C          64.9610   91.0216   13.2271 C.ar    1  UNL1        0.0623
     10 C          65.4419   92.2785   12.5644 C.2     1  UNL1        0.2419
     11 N          65.2051   92.8454   11.1960 N.2     1  UNL1       -0.0302
     12 C          65.9501   94.1436   11.0969 C.2     1  UNL1        0.3765
     13 N          66.6471   94.3790   12.4040 N.2     1  UNL1       -0.0256
     14 C          66.3331   93.2263   13.3110 C.2     1  UNL1        0.2907
     15 C          65.9907   95.0477    9.9006 C.ar    1  UNL1        0.0989
     16 C          64.8312   95.9519    9.6041 C.ar    1  UNL1        0.0085
     17 C          64.8720   96.8559    8.4078 C.ar    1  UNL1        0.0003
     18 C          66.0721   96.8557    7.5081 C.ar    1  UNL1        0.0009
     19 C          67.2316   95.9515    7.8046 C.ar    1  UNL1        0.0116
     20 C          67.1909   95.0475    9.0008 C.ar    1  UNL1        0.0651
     21 CL         68.3504   94.1432    9.2973 Cl      1  UNL1       -0.0820
     22 C          63.5185   87.2511   15.2151 C.3     1  UNL1        0.0311
     23 C          64.2987   85.9787   15.0655 C.3     1  UNL1        0.0310
     24 C          63.6813   84.7967   14.3788 C.ar    1  UNL1       -0.0218
     25 C          63.6458   84.7339   12.8805 C.ar    1  UNL1       -0.0043
     26 C          63.0284   83.5518   12.1938 C.ar    1  UNL1       -0.0003
     27 C          62.4464   82.4326   13.0054 C.ar    1  UNL1       -0.0000
     28 C          62.4819   82.4954   14.5036 C.ar    1  UNL1       -0.0003
     29 C          63.0993   83.6774   15.1904 C.ar    1  UNL1       -0.0043
@<TRIPOS>BOND
     1     1     2    2
     2     2     3    1
     3     3     4    2
     4     4     5   ar
     5     5     6   ar
     6     6    22    1
     7    22    23    1
     8    23    24    1
     9    24    25   ar
    10    25    26   ar
    11    26    27   ar
    12    27    28   ar
    13    28    29   ar
    14     6     7   ar
    15     7     8   ar
    16     8     9   ar
    17     9    10    2
    18    10    11    1
    19    11    12    2
    20    12    15    1
    21    15    16   ar
    22    16    17   ar
    23    17    18   ar
    24    18    19   ar
    25    19    20   ar
    26    20    21    1
    27    12    13    1
    28    13    14    2
    29    14     2    1
    30     9     4   ar
    31    14    10    1
    32    29    24   ar
    33    20    15   ar
@<TRIPOS>MOLECULE
*****
 29 33 0 0 0
SMALL
GASTEIGER

@<TRIPOS>ATOM
      1 O          64.6041   85.1968   15.5495 O.2     1  UNL1       -0.2638
      2 C          64.0086   85.6314   14.2431 C.2     1  UNL1        0.3160
      3 N          63.8370   87.0916   13.9459 N.am    1  UNL1       -0.1721
      4 C          63.2415   87.5261   12.6395 C.ar    1  UNL1        0.0771
      5 C          63.0699   88.9863   12.3422 C.ar    1  UNL1        0.0125
      6 C          62.4744   89.4208   11.0359 C.ar    1  UNL1       -0.0206
      7 C          62.0504   88.3951   10.0269 C.ar    1  UNL1       -0.0041
      8 C          62.2219   86.9349   10.3241 C.ar    1  UNL1        0.0048
      9 C          62.8175   86.5004   11.6305 C.ar    1  UNL1        0.0623
     10 C          62.9891   85.0402   11.9278 C.2     1  UNL1        0.2419
     11 N          62.6664   83.8095   11.1332 N.2     1  UNL1       -0.0302
     12 C          63.0625   82.6144   11.9486 C.2     1  UNL1        0.3765
     13 N          63.6300   83.1065   13.2469 N.2     1  UNL1       -0.0256
     14 C          63.5846   84.6057   13.2341 C.2     1  UNL1        0.2907
     15 C          62.9168   81.1791   11.5376 C.ar    1  UNL1        0.0989
     16 C          63.0870   80.7899   10.0990 C.ar    1  UNL1        0.0085
     17 C          62.9413   79.3547    9.6881 C.ar    1  UNL1        0.0003
     18 C          62.6253   78.3087   10.7158 C.ar    1  UNL1        0.0009
     19 C          62.4550   78.6979   12.1543 C.ar    1  UNL1        0.0116
     20 C          62.6008   80.1331   12.5652 C.ar    1  UNL1        0.0651
     21 CL         62.4305   80.5224   14.0038 Cl      1  UNL1       -0.0820
     22 C          62.3028   90.8810   10.7386 C.3     1  UNL1        0.0311
     23 C          63.4537   91.6765   10.1976 C.3     1  UNL1        0.0310
     24 C          64.6328   91.9805   11.0735 C.ar    1  UNL1       -0.0218
     25 C          64.5275   91.8074   12.5597 C.ar    1  UNL1       -0.0043
     26 C          65.7068   92.1114   13.4356 C.ar    1  UNL1       -0.0003
     27 C          66.9912   92.5884   12.8253 C.ar    1  UNL1       -0.0000
     28 C          67.0965   92.7614   11.3390 C.ar    1  UNL1       -0.0003
     29 C          65.9174   92.4575   10.4631 C.ar    1  UNL1       -0.0043
@<TRIPOS>BOND
     1     1     2    2
     2     2     3    1
     3     3     4    2
     4     4     5   ar
     5     5     6   ar
     6     6    22    1
     7    22    23    1
     8    23    24    1
     9    24    25   ar
    10    25    26   ar
    11    26    27   ar
    12    27    28   ar
    13    28    29   ar
    14     6     7   ar
    15     7     8   ar
    16     8     9   ar
    17     9    10    2
    18    10    11    1
    19    11    12    2
    20    12    15    1
    21    15    16   ar
    22    16    17   ar
    23    17    18   ar
    24    18    19   ar
    25    19    20   ar
    26    20    21    1
    27    12    13    1
    28    13    14    2
    29    14     2    1
    30     9     4   ar
    31    14    10    1
    32    29    24   ar
    33    20    15   ar
@<TRIPOS>MOLECULE
*****
 29 33 0 0 0
SMALL
GASTEIGER

@<TRIPOS>ATOM
      1 O          62.3909   86.3908   18.6918 O.2     1  UNL1       -0.2638
      2 C          62.8451   86.9537   17.3777 C.2     1  UNL1        0.3160
      3 N          63.2070   88.4052   17.2684 N.am    1  UNL1       -0.1721
      4 C          63.6612   88.9681   15.9543 C.ar    1  UNL1        0.0771
      5 C          64.0232   90.4197   15.8451 C.ar    1  UNL1        0.0125
      6 C          64.4773   90.9825   14.5310 C.ar    1  UNL1       -0.0206
      7 C          64.5696   90.0938   13.3261 C.ar    1  UNL1       -0.0041
      8 C          64.2077   88.6423   13.4353 C.ar    1  UNL1        0.0048
      9 C          63.7535   88.0794   14.7494 C.ar    1  UNL1        0.0623
     10 C          63.3915   86.6278   14.8587 C.2     1  UNL1        0.2419
     11 N          63.3838   85.5168   13.8510 N.2     1  UNL1       -0.0302
     12 C          62.9249   84.2672   14.5424 C.2     1  UNL1        0.3765
     13 N          62.6489   84.6060   15.9773 N.2     1  UNL1       -0.0256
     14 C          62.9374   86.0650   16.1728 C.2     1  UNL1        0.2907
     15 C          62.7692   82.9160   13.9098 C.ar    1  UNL1        0.0989
     16 C          61.8124   81.9198   14.4946 C.ar    1  UNL1        0.0085
     17 C          61.6567   80.5687   13.8620 C.ar    1  UNL1        0.0003
     18 C          62.4578   80.2138   12.6446 C.ar    1  UNL1        0.0009
     19 C          63.4147   81.2100   12.0597 C.ar    1  UNL1        0.0116
     20 C          63.5703   82.5611   12.6923 C.ar    1  UNL1        0.0651
     21 CL         64.5272   83.5573   12.1075 Cl      1  UNL1       -0.0820
     22 C          64.8393   92.4341   14.4217 C.3     1  UNL1        0.0311
     23 C          66.2306   92.8325   14.0275 C.3     1  UNL1        0.0310
     24 C          66.5357   93.1785   12.6002 C.ar    1  UNL1       -0.0218
     25 C          67.1701   92.1595   11.7006 C.ar    1  UNL1       -0.0043
     26 C          67.4752   92.5056   10.2732 C.ar    1  UNL1       -0.0003
     27 C          67.1459   93.8705    9.7456 C.ar    1  UNL1       -0.0000
     28 C          66.5116   94.8895   10.6452 C.ar    1  UNL1       -0.0003
     29 C          66.2065   94.5435   12.0724 C.ar    1  UNL1       -0.0043
@<TRIPOS>BOND
     1     1     2    2
     2     2     3    1
     3     3     4    2
     4     4     5   ar
     5     5     6   ar
     6     6    22    1
     7    22    23    1
     8    23    24    1
     9    24    25   ar
    10    25    26   ar
    11    26    27   ar
    12    27    28   ar
    13    28    29   ar
    14     6     7   ar
    15     7     8   ar
    16     8     9   ar
    17     9    10    2
    18    10    11    1
    19    11    12    2
    20    12    15    1
    21    15    16   ar
    22    16    17   ar
    23    17    18   ar
    24    18    19   ar
    25    19    20   ar
    26    20    21    1
    27    12    13    1
    28    13    14    2
    29    14     2    1
    30     9     4   ar
    31    14    10    1
    32    29    24   ar
    33    20    15   ar
@<TRIPOS>MOLECULE
*****
 29 33 0 0 0
SMALL
GASTEIGER

@<TRIPOS>ATOM
      1 O          63.5809   84.3796   14.3552 O.2     1  UNL1       -0.2638
      2 C          63.5802   85.8076   13.8957 C.2     1  UNL1        0.3160
      3 N          64.0159   86.8965   14.8308 N.am    1  UNL1       -0.1721
      4 C          64.0152   88.3245   14.3713 C.ar    1  UNL1        0.0771
      5 C          64.4510   89.4134   15.3064 C.ar    1  UNL1        0.0125
      6 C          64.4503   90.8412   14.8469 C.ar    1  UNL1       -0.0206
      7 C          64.0138   91.1802   13.4525 C.ar    1  UNL1       -0.0041
      8 C          63.5780   90.0913   12.5174 C.ar    1  UNL1        0.0048
      9 C          63.5787   88.6634   12.9769 C.ar    1  UNL1        0.0623
     10 C          63.1429   87.5744   12.0418 C.2     1  UNL1        0.2419
     11 N          62.6637   87.6039   10.6208 N.2     1  UNL1       -0.0302
     12 C          62.3683   86.1942   10.2019 C.2     1  UNL1        0.3765
     13 N          62.6649   85.2935   11.3641 N.2     1  UNL1       -0.0256
     14 C          63.1436   86.1466   12.5013 C.2     1  UNL1        0.2907
     15 C          61.8646   85.7612    8.8569 C.ar    1  UNL1        0.0989
     16 C          62.7461   84.9546    7.9501 C.ar    1  UNL1        0.0085
     17 C          62.2424   84.5217    6.6052 C.ar    1  UNL1        0.0003
     18 C          60.8573   84.8954    6.1671 C.ar    1  UNL1        0.0009
     19 C          59.9759   85.7020    7.0739 C.ar    1  UNL1        0.0116
     20 C          60.4796   86.1349    8.4188 C.ar    1  UNL1        0.0651
     21 CL         59.5981   86.9416    9.3258 Cl      1  UNL1       -0.0820
     22 C          64.8861   91.9302   15.7820 C.3     1  UNL1        0.0311
     23 C          66.0613   92.7939   15.4315 C.3     1  UNL1        0.0310
     24 C          66.6768   92.7051   14.0665 C.ar    1  UNL1       -0.0218
     25 C          67.8256   91.7724   13.8210 C.ar    1  UNL1       -0.0043
     26 C          68.4410   91.6836   12.4559 C.ar    1  UNL1       -0.0003
     27 C          67.9077   92.5274   11.3363 C.ar    1  UNL1       -0.0000
     28 C          66.7589   93.4602   11.5819 C.ar    1  UNL1       -0.0003
     29 C          66.1434   93.5490   12.9469 C.ar    1  UNL1       -0.0043
@<TRIPOS>BOND
     1     1     2    2
     2     2     3    1
     3     3     4    2
     4     4     5   ar
     5     5     6   ar
     6     6    22    1
     7    22    23    1
     8    23    24    1
     9    24    25   ar
    10    25    26   ar
    11    26    27   ar
    12    27    28   ar
    13    28    29   ar
    14     6     7   ar
    15     7     8   ar
    16     8     9   ar
    17     9    10    2
    18    10    11    1
    19    11    12    2
    20    12    15    1
    21    15    16   ar
    22    16    17   ar
    23    17    18   ar
    24    18    19   ar
    25    19    20   ar
    26    20    21    1
    27    12    13    1
    28    13    14    2
    29    14     2    1
    30     9     4   ar
    31    14    10    1
    32    29    24   ar
    33    20    15   ar
@<TRIPOS>MOLECULE
*****
 29 33 0 0 0
SMALL
GASTEIGER

@<TRIPOS>ATOM
      1 O          65.3428   91.1195   15.3186 O.2     1  UNL1       -0.2638
      2 C          64.7582   90.6414   14.0225 C.2     1  UNL1        0.3160
      3 N          64.0124   89.3411   13.9705 N.am    1  UNL1       -0.1721
      4 C          63.4278   88.8630   12.6743 C.ar    1  UNL1        0.0771
      5 C          62.6821   87.5626   12.6223 C.ar    1  UNL1        0.0125
      6 C          62.0976   87.0846   11.3263 C.ar    1  UNL1       -0.0206
      7 C          62.2588   87.9070   10.0822 C.ar    1  UNL1       -0.0041
      8 C          63.0046   89.2074   10.1342 C.ar    1  UNL1        0.0048
      9 C          63.5891   89.6854   11.4303 C.ar    1  UNL1        0.0623
     10 C          64.3349   90.9859   11.4824 C.2     1  UNL1        0.2419
     11 N          64.6523   92.0037   10.4273 N.2     1  UNL1       -0.0302
     12 C          65.4330   93.1109   11.0713 C.2     1  UNL1        0.3765
     13 N          65.5981   92.7772   12.5244 N.2     1  UNL1       -0.0256
     14 C          64.9194   91.4638   12.7784 C.2     1  UNL1        0.2907
     15 C          65.9567   94.3365   10.3831 C.ar    1  UNL1        0.0989
     16 C          65.1986   95.6278   10.4712 C.ar    1  UNL1        0.0085
     17 C          65.7223   96.8533    9.7830 C.ar    1  UNL1        0.0003
     18 C          67.0041   96.7876    9.0066 C.ar    1  UNL1        0.0009
     19 C          67.7622   95.4963    8.9185 C.ar    1  UNL1        0.0116
     20 C          67.2385   94.2707    9.6068 C.ar    1  UNL1        0.0651
     21 CL         67.9966   92.9794    9.5187 Cl      1  UNL1       -0.0820
     22 C          61.3517   85.7842   11.2742 C.3     1  UNL1        0.0311
     23 C          62.0603   84.5294   10.8579 C.3     1  UNL1        0.0310
     24 C          62.5808   83.5817   11.8976 C.ar    1  UNL1       -0.0218
     25 C          62.5952   82.1063   11.6277 C.ar    1  UNL1       -0.0043
     26 C          63.1157   81.1587   12.6676 C.ar    1  UNL1       -0.0003
     27 C          63.6217   81.6865   13.9772 C.ar    1  UNL1       -0.0000
     28 C          63.6072   83.1619   14.2472 C.ar    1  UNL1       -0.0003
     29 C          63.0868   84.1096   13.2074 C.ar    1  UNL1       -0.0043
@<TRIPOS>BOND
     1     1     2    2
     2     2     3    1
     3     3     4    2
     4     4     5   ar
     5     5     6   ar
     6     6    22    1
     7    22    23    1
     8    23    24    1
     9    24    25   ar
    10    25    26   ar
    11    26    27   ar
    12    27    28   ar
    13    28    29   ar
    14     6     7   ar
    15     7     8   ar
    16     8     9   ar
    17     9    10    2
    18    10    11    1
    19    11    12    2
    20    12    15    1
    21    15    16   ar
    22    16    17   ar
    23    17    18   ar
    24    18    19   ar
    25    19    20   ar
    26    20    21    1
    27    12    13    1
    28    13    14    2
    29    14     2    1
    30     9     4   ar
    31    14    10    1
    32    29    24   ar
    33    20    15   ar
@<TRIPOS>MOLECULE
*****
 29 33 0 0 0
SMALL
GASTEIGER

@<TRIPOS>ATOM
      1 O          62.1515   89.7992    9.7440 O.2     1  UNL1       -0.2638
      2 C          62.7404   90.1136   11.0873 C.2     1  UNL1        0.3160
      3 N          62.3704   89.2844   12.2811 N.am    1  UNL1       -0.1721
      4 C          62.9593   89.5988   13.6244 C.ar    1  UNL1        0.0771
      5 C          62.5893   88.7696   14.8183 C.ar    1  UNL1        0.0125
      6 C          63.1782   89.0840   16.1615 C.ar    1  UNL1       -0.0206
      7 C          64.1373   90.2277   16.3108 C.ar    1  UNL1       -0.0041
      8 C          64.5073   91.0569   15.1169 C.ar    1  UNL1        0.0048
      9 C          63.9184   90.7425   13.7737 C.ar    1  UNL1        0.0623
     10 C          64.2884   91.5717   12.5798 C.2     1  UNL1        0.2419
     11 N          65.2002   92.7522   12.4213 N.2     1  UNL1       -0.0302
     12 C          65.1748   93.1673   10.9801 C.2     1  UNL1        0.3765
     13 N          64.2473   92.2434   10.2479 N.2     1  UNL1       -0.0256
     14 C          63.6995   91.2573   11.2366 C.2     1  UNL1        0.2907
     15 C          65.9422   94.3064   10.3770 C.ar    1  UNL1        0.0989
     16 C          65.4302   95.7099   10.5111 C.ar    1  UNL1        0.0085
     17 C          66.1976   96.8489    9.9080 C.ar    1  UNL1        0.0003
     18 C          67.4770   96.5844    9.1709 C.ar    1  UNL1        0.0009
     19 C          67.9889   95.1809    9.0369 C.ar    1  UNL1        0.0116
     20 C          67.2215   94.0419    9.6400 C.ar    1  UNL1        0.0651
     21 CL         67.7335   92.6383    9.5060 Cl      1  UNL1       -0.0820
     22 C          62.8082   88.2548   17.3554 C.3     1  UNL1        0.0311
     23 C          63.3828   86.8790   17.5203 C.3     1  UNL1        0.0310
     24 C          63.4032   85.9306   16.3584 C.ar    1  UNL1       -0.0218
     25 C          62.2795   84.9558   16.1662 C.ar    1  UNL1       -0.0043
     26 C          62.2999   84.0073   15.0043 C.ar    1  UNL1       -0.0003
     27 C          63.4440   84.0336   14.0347 C.ar    1  UNL1       -0.0000
     28 C          64.5677   85.0084   14.2269 C.ar    1  UNL1       -0.0003
     29 C          64.5474   85.9569   15.3887 C.ar    1  UNL1       -0.0043
@<TRIPOS>BOND
     1     1     2    2
     2     2     3    1
     3     3     4    2
     4     4     5   ar
     5     5     6   ar
     6     6    22    1
     7    22    23    1
     8    23    24    1
     9    24    25   ar
    10    25    26   ar
    11    26    27   ar
    12    27    28   ar
    13    28    29   ar
    14     6     7   ar
    15     7     8   ar
    16     8     9   ar
    17     9    10    2
    18    10    11    1
    19    11    12    2
    20    12    15    1
    21    15    16   ar
    22    16    17   ar
    23    17    18   ar
    24    18    19   ar
    25    19    20   ar
    26    20    21    1
    27    12    13    1
    28    13    14    2
    29    14     2    1
    30     9     4   ar
    31    14    10    1
    32    29    24   ar
    33    20    15   ar
