@<TRIPOS>MOLECULE
*****
 39 45 0 0 0
SMALL
GASTEIGER

@<TRIPOS>ATOM
      1 N          60.6346   86.6451   11.7746 N.pl3   1  UNL1       -0.3414
      2 C          60.9448   88.0603   11.3862 C.ar    1  UNL1        0.1432
      3 N          59.9705   88.8404   10.5542 N.ar    1  UNL1       -0.2265
      4 C          60.2807   90.2557   10.1658 C.ar    1  UNL1        0.1193
      5 C          61.5652   90.8908   10.6096 C.ar    1  UNL1        0.1020
      6 N          62.5393   90.1108   11.4416 N.ar    1  UNL1       -0.2885
      7 C          62.2292   88.6955   11.8299 C.ar    1  UNL1        0.1141
      8 C          63.3735   88.1786   12.6505 C.ar    1  UNL1        0.1014
      9 N          64.3909   89.2743   12.7693 N.ar    1  UNL1       -0.2305
     10 C          63.8754   90.4685   12.0222 C.ar    1  UNL1        0.1239
     11 H          59.7917   86.2282   11.4833 H       1  UNL1        0.1438
     12 H          61.2741   86.1331   12.3207 H       1  UNL1        0.1438
     13 C          63.4815   86.8066   13.2474 C.ar    1  UNL1        0.0207
     14 C          63.8182   86.6452   14.7002 C.ar    1  UNL1        0.0016
     15 C          63.9261   85.2733   15.2970 C.ar    1  UNL1        0.0015
     16 C          63.6973   84.0629   14.4411 C.ar    1  UNL1        0.0177
     17 C          63.8053   82.6910   15.0381 C.ar    1  UNL1        0.0030
     18 C          63.5764   81.4806   14.1822 C.ar    1  UNL1        0.0191
     19 C          63.2397   81.6421   12.7294 C.ar    1  UNL1        0.0812
     20 N          63.1318   83.0139   12.1325 N.ar    1  UNL1       -0.2454
     21 C          63.3606   84.2243   12.9884 C.ar    1  UNL1        0.0813
     22 C          63.2527   85.5962   12.3915 C.ar    1  UNL1        0.0206
     23 C          63.0109   80.4316   11.8735 C.ar    1  UNL1        0.0176
     24 C          63.1290   80.5347   10.3817 C.ar    1  UNL1        0.0015
     25 C          62.9002   79.3243    9.5258 C.ar    1  UNL1        0.0000
     26 C          62.5532   78.0108   10.1618 C.ar    1  UNL1        0.0000
     27 C          62.4351   77.9077   11.6535 C.ar    1  UNL1        0.0000
     28 C          62.6639   79.1182   12.5094 C.ar    1  UNL1        0.0015
     29 C          64.5734   91.7887   11.8804 C.3     1  UNL1        0.0573
     30 C          65.3850   92.6624   12.7903 C.3     1  UNL1        0.0089
     31 C          65.5604   93.6556   11.6800 C.3     1  UNL1        0.0168
     32 C          64.7489   92.7818   10.7701 C.3     1  UNL1        0.0089
     33 C          66.2584   94.9758   11.5383 C.3     1  UNL1        0.0722
     34 N          66.4102   95.6023   10.1839 N.3     1  UNL1       -0.2685
     35 C          65.2254   96.2291    9.5104 C.3     1  UNL1        0.1046
     36 C          65.3772   96.8556    8.1560 C.3     1  UNL1        0.1595
     37 O          66.7138   96.8554    7.4751 O.3     1  UNL1       -0.3508
     38 C          67.8985   96.2287    8.1486 C.3     1  UNL1        0.1595
     39 C          67.7467   95.6021    9.5030 C.3     1  UNL1        0.1046
@<TRIPOS>BOND
     1     1     2    1
     2     2     3   ar
     3     3     4   ar
     4     4     5   ar
     5     5     6   ar
     6     6     7   ar
     7     7     8   ar
     8     8    13    1
     9    13    14   ar
    10    14    15   ar
    11    15    16   ar
    12    16    17   ar
    13    17    18   ar
    14    18    19   ar
    15    19    23    1
    16    23    24   ar
    17    24    25   ar
    18    25    26   ar
    19    26    27   ar
    20    27    28   ar
    21    19    20   ar
    22    20    21   ar
    23    21    22   ar
    24     8     9   ar
    25     9    10   ar
    26    29    10    1
    27    29    30    1
    28    30    31    1
    29    31    33    1
    30    33    34    1
    31    34    35    1
    32    35    36    1
    33    36    37    1
    34    37    38    1
    35    38    39    1
    36    31    32    1
    37     7     2   ar
    38    22    13   ar
    39    32    29    1
    40    10     6   ar
    41    39    34    1
    42    21    16   ar
    43    28    23   ar
    44     1    11    1
    45     1    12    1
@<TRIPOS>MOLECULE
*****
 39 45 0 0 0
SMALL
GASTEIGER

@<TRIPOS>ATOM
      1 N          61.3543   86.3600   11.1161 N.pl3   1  UNL1       -0.3414
      2 C          60.8590   86.6139    9.7232 C.ar    1  UNL1        0.1432
      3 N          60.5170   85.4608    8.8269 N.ar    1  UNL1       -0.2265
      4 C          60.0217   85.7148    7.4340 C.ar    1  UNL1        0.1193
      5 C          59.8684   87.1219    6.9375 C.ar    1  UNL1        0.1020
      6 N          60.2103   88.2750    7.8338 N.ar    1  UNL1       -0.2885
      7 C          60.7056   88.0210    9.2267 C.ar    1  UNL1        0.1141
      8 C          60.9622   89.3483    9.8766 C.ar    1  UNL1        0.1014
      9 N          60.6255   90.4226    8.8855 N.ar    1  UNL1       -0.2305
     10 C          60.1608   89.7593    7.6229 C.ar    1  UNL1        0.1239
     11 H          61.4550   85.4364   11.4420 H       1  UNL1        0.1438
     12 H          61.5787   87.1168   11.7044 H       1  UNL1        0.1438
     13 C          61.4669   89.5635   11.2727 C.ar    1  UNL1        0.0207
     14 C          60.6245   89.1578   12.4457 C.ar    1  UNL1        0.0016
     15 C          61.1293   89.3730   13.8417 C.ar    1  UNL1        0.0015
     16 C          62.4764   89.9938   14.0648 C.ar    1  UNL1        0.0177
     17 C          62.9812   90.2090   15.4609 C.ar    1  UNL1        0.0030
     18 C          64.3283   90.8299   15.6840 C.ar    1  UNL1        0.0191
     19 C          65.1707   91.2356   14.5109 C.ar    1  UNL1        0.0812
     20 N          64.6659   91.0204   13.1149 N.ar    1  UNL1       -0.2454
     21 C          63.3188   90.3995   12.8918 C.ar    1  UNL1        0.0813
     22 C          62.8141   90.1843   11.4958 C.ar    1  UNL1        0.0206
     23 C          66.5178   91.8564   14.7340 C.ar    1  UNL1        0.0176
     24 C          67.6290   91.6085   13.7573 C.ar    1  UNL1        0.0015
     25 C          68.9761   92.2293   13.9804 C.ar    1  UNL1        0.0000
     26 C          69.2121   93.0981   15.1802 C.ar    1  UNL1        0.0000
     27 C          68.1010   93.3460   16.1569 C.ar    1  UNL1        0.0000
     28 C          66.7539   92.7251   15.9338 C.ar    1  UNL1        0.0015
     29 C          59.7233   90.4577    6.3695 C.3     1  UNL1        0.0573
     30 C          60.4268   91.0475    5.1832 C.3     1  UNL1        0.0089
     31 C          59.1047   91.4453    4.5970 C.3     1  UNL1        0.0168
     32 C          58.4012   90.8554    5.7832 C.3     1  UNL1        0.0089
     33 C          58.6672   92.1436    3.3436 C.3     1  UNL1        0.0722
     34 N          59.6911   92.6818    2.3886 N.3     1  UNL1       -0.2685
     35 C          59.2763   93.1298    1.0183 C.3     1  UNL1        0.1046
     36 C          60.3001   93.6680    0.0633 C.3     1  UNL1        0.1595
     37 O          61.7387   93.7582    0.4784 O.3     1  UNL1       -0.3508
     38 C          62.1534   93.3102    1.8486 C.3     1  UNL1        0.1595
     39 C          61.1296   92.7720    2.8036 C.3     1  UNL1        0.1046
@<TRIPOS>BOND
     1     1     2    1
     2     2     3   ar
     3     3     4   ar
     4     4     5   ar
     5     5     6   ar
     6     6     7   ar
     7     7     8   ar
     8     8    13    1
     9    13    14   ar
    10    14    15   ar
    11    15    16   ar
    12    16    17   ar
    13    17    18   ar
    14    18    19   ar
    15    19    23    1
    16    23    24   ar
    17    24    25   ar
    18    25    26   ar
    19    26    27   ar
    20    27    28   ar
    21    19    20   ar
    22    20    21   ar
    23    21    22   ar
    24     8     9   ar
    25     9    10   ar
    26    29    10    1
    27    29    30    1
    28    30    31    1
    29    31    33    1
    30    33    34    1
    31    34    35    1
    32    35    36    1
    33    36    37    1
    34    37    38    1
    35    38    39    1
    36    31    32    1
    37     7     2   ar
    38    22    13   ar
    39    32    29    1
    40    10     6   ar
    41    39    34    1
    42    21    16   ar
    43    28    23   ar
    44     1    11    1
    45     1    12    1
@<TRIPOS>MOLECULE
*****
 39 45 0 0 0
SMALL
GASTEIGER

@<TRIPOS>ATOM
      1 N          60.0502   86.5743    7.5721 N.pl3   1  UNL1       -0.3414
      2 C          60.8578   86.5584    8.8360 C.ar    1  UNL1        0.1432
      3 N          61.2446   85.2516    9.4626 N.ar    1  UNL1       -0.2265
      4 C          62.0522   85.2357   10.7265 C.ar    1  UNL1        0.1193
      5 C          62.4730   86.5268   11.3638 C.ar    1  UNL1        0.1020
      6 N          62.0863   87.8335   10.7372 N.ar    1  UNL1       -0.2885
      7 C          61.2787   87.8494    9.4733 C.ar    1  UNL1        0.1141
      8 C          61.0478   89.2808    9.0886 C.ar    1  UNL1        0.1014
      9 N          61.7128   90.1495   10.1148 N.ar    1  UNL1       -0.2305
     10 C          62.3546   89.2551   11.1337 C.ar    1  UNL1        0.1239
     11 H          59.7740   85.7270    7.1537 H       1  UNL1        0.1438
     12 H          59.7964   87.4320    7.1608 H       1  UNL1        0.1438
     13 C          60.2858   89.7593    7.8884 C.ar    1  UNL1        0.0207
     14 C          58.8318   89.4222    7.7398 C.ar    1  UNL1        0.0016
     15 C          58.0699   89.9007    6.5397 C.ar    1  UNL1        0.0015
     16 C          58.7619   90.7163    5.4881 C.ar    1  UNL1        0.0177
     17 C          57.9999   91.1949    4.2879 C.ar    1  UNL1        0.0030
     18 C          58.6920   92.0105    3.2364 C.ar    1  UNL1        0.0191
     19 C          60.1461   92.3476    3.3850 C.ar    1  UNL1        0.0812
     20 N          60.9080   91.8691    4.5852 N.ar    1  UNL1       -0.2454
     21 C          60.2159   91.0534    5.6367 C.ar    1  UNL1        0.0813
     22 C          60.9779   90.5749    6.8369 C.ar    1  UNL1        0.0206
     23 C          60.8382   93.1633    2.3335 C.ar    1  UNL1        0.0176
     24 C          60.2542   94.4738    1.8958 C.ar    1  UNL1        0.0015
     25 C          60.9462   95.2895    0.8443 C.ar    1  UNL1        0.0000
     26 C          62.2223   94.7945    0.2304 C.ar    1  UNL1        0.0000
     27 C          62.8062   93.4840    0.6681 C.ar    1  UNL1        0.0000
     28 C          62.1141   92.6684    1.7196 C.ar    1  UNL1        0.0015
     29 C          63.1287   89.7036   12.3377 C.3     1  UNL1        0.0573
     30 C          63.8501   89.0085   13.4542 C.3     1  UNL1        0.0089
     31 C          64.2236   90.3378   14.0404 C.3     1  UNL1        0.0168
     32 C          63.5023   91.0328   12.9239 C.3     1  UNL1        0.0089
     33 C          64.9977   90.7862   15.2444 C.3     1  UNL1        0.0722
     34 N          66.2501   91.5937   15.0728 N.3     1  UNL1       -0.2685
     35 C          67.1582   91.3311   13.9080 C.3     1  UNL1        0.1046
     36 C          68.4106   92.1386   13.7364 C.3     1  UNL1        0.1595
     37 O          68.7549   93.2088   14.7294 O.3     1  UNL1       -0.3508
     38 C          67.8468   93.4714   15.8941 C.3     1  UNL1        0.1595
     39 C          66.5944   92.6639   16.0657 C.3     1  UNL1        0.1046
@<TRIPOS>BOND
     1     1     2    1
     2     2     3   ar
     3     3     4   ar
     4     4     5   ar
     5     5     6   ar
     6     6     7   ar
     7     7     8   ar
     8     8    13    1
     9    13    14   ar
    10    14    15   ar
    11    15    16   ar
    12    16    17   ar
    13    17    18   ar
    14    18    19   ar
    15    19    23    1
    16    23    24   ar
    17    24    25   ar
    18    25    26   ar
    19    26    27   ar
    20    27    28   ar
    21    19    20   ar
    22    20    21   ar
    23    21    22   ar
    24     8     9   ar
    25     9    10   ar
    26    29    10    1
    27    29    30    1
    28    30    31    1
    29    31    33    1
    30    33    34    1
    31    34    35    1
    32    35    36    1
    33    36    37    1
    34    37    38    1
    35    38    39    1
    36    31    32    1
    37     7     2   ar
    38    22    13   ar
    39    32    29    1
    40    10     6   ar
    41    39    34    1
    42    21    16   ar
    43    28    23   ar
    44     1    11    1
    45     1    12    1
