@<TRIPOS>MOLECULE
*****
 33 36 0 0 0
SMALL
GASTEIGER

@<TRIPOS>ATOM
      1 C          61.0605   87.7749    9.3466 C.ar    1  UNL1        0.0559
      2 C          61.2651   89.2552    9.4771 C.ar    1  UNL1        0.0061
      3 C          60.6925   90.1850    8.4488 C.ar    1  UNL1        0.0171
      4 C          59.9153   89.6346    7.2899 C.ar    1  UNL1        0.0784
      5 C          59.7107   88.1543    7.1594 C.ar    1  UNL1        0.1536
      6 F          58.9335   87.6039    6.0005 F       1  UNL1       -0.2029
      7 C          60.2833   87.2245    8.1877 C.ar    1  UNL1        0.0356
      8 C          63.2100   83.2189   13.3748 C.ar    1  UNL1       -0.0149
      9 C          63.8024   84.3890   14.1028 C.ar    1  UNL1       -0.0007
     10 C          63.6026   85.7792   13.5762 C.ar    1  UNL1        0.0388
     11 C          62.8105   85.9994   12.3216 C.ar    1  UNL1        0.1647
     12 O          62.4490   87.2452   11.5685 O.2     1  UNL1       -0.4346
     13 C          61.6331   86.8451   10.3750 C.ar    1  UNL1        0.2297
     14 N          61.4905   85.3520   10.3905 N.ar    1  UNL1       -0.2083
     15 C          62.2182   84.8293   11.5936 C.ar    1  UNL1        0.1186
     16 C          62.4179   83.4391   12.1202 C.ar    1  UNL1        0.0184
     17 C          63.4098   81.8287   13.9014 C.3     1  UNL1        0.0680
     18 O          62.5253   79.5932   12.9162 O.co2   1  UNL1       -0.5488
     19 C          62.3159   80.8112   13.7665 C.2     1  UNL1        0.0547
     20 O          61.0128   81.0116   14.4817 O.co2   1  UNL1       -0.5488
     21 N          59.3427   90.5644    6.2615 N.am    1  UNL1       -0.2786
     22 C          60.2261   91.1358    5.1923 C.2     1  UNL1        0.2497
     23 O          61.6821   90.7773    5.1515 O.2     1  UNL1       -0.2698
     24 H          58.3871   90.7997    6.2883 H       1  UNL1        0.1552
     25 C          59.6535   92.0655    4.1639 C.2     1  UNL1        0.0580
     26 C          60.5208   92.5827    3.0547 C.2     1  UNL1        0.0047
     27 C          59.9482   93.5125    2.0263 C.ar    1  UNL1        0.0002
     28 C          59.0766   92.9740    0.9307 C.ar    1  UNL1        0.0005
     29 C          58.5041   93.9039   -0.0977 C.ar    1  UNL1        0.0067
     30 C          58.8031   95.3722   -0.0305 C.ar    1  UNL1        0.0346
     31 BR         58.2305   96.3021   -1.0589 Br      1  UNL1       -0.0490
     32 C          59.6746   95.9107    1.0651 C.ar    1  UNL1        0.0067
     33 C          60.2472   94.9809    2.0935 C.ar    1  UNL1        0.0005
@<TRIPOS>UNITY_ATOM_ATTR
18 1
charge -1
@<TRIPOS>BOND
     1    18    19   ar
     2    19    20   ar
     3    19    17    1
     4    17     8    1
     5     8     9   ar
     6     9    10   ar
     7    10    11   ar
     8    11    12   ar
     9    12    13   ar
    10    13     1    1
    11     1     2   ar
    12     2     3   ar
    13     3     4   ar
    14     4    21    1
    15    21    22   am
    16    22    23    2
    17    22    25    1
    18    25    26    2
    19    26    27    1
    20    27    28   ar
    21    28    29   ar
    22    29    30   ar
    23    30    31    1
    24    30    32   ar
    25    32    33   ar
    26     4     5   ar
    27     5     6    1
    28     5     7   ar
    29    13    14   ar
    30    14    15   ar
    31    15    16   ar
    32    16     8   ar
    33    15    11   ar
    34     7     1   ar
    35    33    27   ar
    36    21    24    1
@<TRIPOS>MOLECULE
*****
 33 36 0 0 0
SMALL
GASTEIGER

@<TRIPOS>ATOM
      1 C          59.7559   90.0338    6.4488 C.ar    1  UNL1        0.0559
      2 C          60.8037   90.6159    5.5469 C.ar    1  UNL1        0.0061
      3 C          60.4004   91.4761    4.3861 C.ar    1  UNL1        0.0171
      4 C          58.9493   91.7541    4.1272 C.ar    1  UNL1        0.0784
      5 C          57.9016   91.1721    5.0291 C.ar    1  UNL1        0.1536
      6 F          56.4505   91.4502    4.7702 F       1  UNL1       -0.2029
      7 C          58.3049   90.3119    6.1899 C.ar    1  UNL1        0.0356
      8 C          61.5828   85.7813   10.9413 C.ar    1  UNL1       -0.0149
      9 C          61.3745   86.9392   11.8717 C.ar    1  UNL1       -0.0007
     10 C          60.9210   88.2631   11.3316 C.ar    1  UNL1        0.0388
     11 C          60.6758   88.4291    9.8612 C.ar    1  UNL1        0.1647
     12 O          60.2278   89.6049    9.0447 O.2     1  UNL1       -0.4346
     13 C          60.1593   89.1737    7.6096 C.ar    1  UNL1        0.2297
     14 N          60.5650   87.7313    7.5392 N.ar    1  UNL1       -0.2083
     15 C          60.8842   87.2711    8.9308 C.ar    1  UNL1        0.1186
     16 C          61.3377   85.9472    9.4708 C.ar    1  UNL1        0.0184
     17 C          62.0363   84.4574   11.4814 C.3     1  UNL1        0.0680
     18 O          64.3414   84.0394   12.6047 O.co2   1  UNL1       -0.5488
     19 C          62.8901   84.4027   12.7134 C.2     1  UNL1        0.0547
     20 O          62.2926   84.7113   14.0543 O.co2   1  UNL1       -0.5488
     21 N          58.5460   92.6143    2.9664 N.am    1  UNL1       -0.2786
     22 C          59.5526   92.9744    1.9143 C.2     1  UNL1        0.2497
     23 O          60.9627   92.4743    2.0230 O.2     1  UNL1       -0.2698
     24 H          57.6205   92.9425    2.8951 H       1  UNL1        0.1552
     25 C          59.1493   93.8346    0.7535 C.2     1  UNL1        0.0580
     26 C          58.2283   93.2911   -0.2983 C.2     1  UNL1        0.0047
     27 C          57.8250   94.1513   -1.4591 C.ar    1  UNL1        0.0002
     28 C          58.8595   94.9481   -2.1973 C.ar    1  UNL1        0.0005
     29 C          58.4561   95.8083   -3.3581 C.ar    1  UNL1        0.0067
     30 C          57.0183   95.8716   -3.7807 C.ar    1  UNL1        0.0346
     31 BR         56.6149   96.7318   -4.9416 Br      1  UNL1       -0.0490
     32 C          55.9838   95.0748   -3.0425 C.ar    1  UNL1        0.0067
     33 C          56.3871   94.2147   -1.8818 C.ar    1  UNL1        0.0005
@<TRIPOS>UNITY_ATOM_ATTR
18 1
charge -1
@<TRIPOS>BOND
     1    18    19   ar
     2    19    20   ar
     3    19    17    1
     4    17     8    1
     5     8     9   ar
     6     9    10   ar
     7    10    11   ar
     8    11    12   ar
     9    12    13   ar
    10    13     1    1
    11     1     2   ar
    12     2     3   ar
    13     3     4   ar
    14     4    21    1
    15    21    22   am
    16    22    23    2
    17    22    25    1
    18    25    26    2
    19    26    27    1
    20    27    28   ar
    21    28    29   ar
    22    29    30   ar
    23    30    31    1
    24    30    32   ar
    25    32    33   ar
    26     4     5   ar
    27     5     6    1
    28     5     7   ar
    29    13    14   ar
    30    14    15   ar
    31    15    16   ar
    32    16     8   ar
    33    15    11   ar
    34     7     1   ar
    35    33    27   ar
    36    21    24    1
@<TRIPOS>MOLECULE
*****
 33 36 0 0 0
SMALL
GASTEIGER

@<TRIPOS>ATOM
      1 C          59.2164   94.0350   -0.5670 C.ar    1  UNL1        0.0559
      2 C          59.1118   92.5504   -0.3798 C.ar    1  UNL1        0.0061
      3 C          59.4891   91.9317    0.9336 C.ar    1  UNL1        0.0171
      4 C          59.9709   92.7976    2.0596 C.ar    1  UNL1        0.0784
      5 C          60.0755   94.2822    1.8723 C.ar    1  UNL1        0.1536
      6 F          60.5574   95.1480    2.9984 F       1  UNL1       -0.2029
      7 C          59.6982   94.9008    0.5590 C.ar    1  UNL1        0.0356
      8 C          56.8871   96.4987   -6.0542 C.ar    1  UNL1       -0.0149
      9 C          58.3232   96.8559   -6.2984 C.ar    1  UNL1       -0.0007
     10 C          59.3681   96.4987   -5.2832 C.ar    1  UNL1        0.0388
     11 C          58.9767   95.7843   -4.0236 C.ar    1  UNL1        0.1647
     12 O          59.7793   95.3063   -2.8500 O.2     1  UNL1       -0.4346
     13 C          58.8391   94.6536   -1.8804 C.ar    1  UNL1        0.2297
     14 N          57.4554   94.7283   -2.4548 N.ar    1  UNL1       -0.2083
     15 C          57.5405   95.4271   -3.7794 C.ar    1  UNL1        0.1186
     16 C          56.4957   95.7843   -4.7947 C.ar    1  UNL1        0.0184
     17 C          55.8422   96.8558   -7.0695 C.3     1  UNL1        0.0680
     18 O          53.3368   96.3747   -7.5608 O.co2   1  UNL1       -0.5488
     19 C          54.7443   95.8851   -7.3891 C.2     1  UNL1        0.0547
     20 O          55.0538   94.4249   -7.5372 O.co2   1  UNL1       -0.5488
     21 N          60.3482   92.1789    3.3730 N.am    1  UNL1       -0.2786
     22 C          59.2804   91.7735    4.3453 C.2     1  UNL1        0.2497
     23 O          57.8353   91.9867    4.0042 O.2     1  UNL1       -0.2698
     24 H          61.2967   92.0389    3.5968 H       1  UNL1        0.1552
     25 C          59.6576   91.1548    5.6587 C.2     1  UNL1        0.0580
     26 C          59.2783   89.7342    5.9550 C.2     1  UNL1        0.0047
     27 C          59.6555   89.1155    7.2684 C.ar    1  UNL1        0.0002
     28 C          60.3760   89.9299    8.3016 C.ar    1  UNL1        0.0005
     29 C          60.7532   89.3112    9.6150 C.ar    1  UNL1        0.0067
     30 C          60.4100   87.8781    9.8951 C.ar    1  UNL1        0.0346
     31 BR         60.7872   87.2594   11.2085 Br      1  UNL1       -0.0490
     32 C          59.6895   87.0637    8.8618 C.ar    1  UNL1        0.0067
     33 C          59.3123   87.6824    7.5485 C.ar    1  UNL1        0.0005
@<TRIPOS>UNITY_ATOM_ATTR
18 1
charge -1
@<TRIPOS>BOND
     1    18    19   ar
     2    19    20   ar
     3    19    17    1
     4    17     8    1
     5     8     9   ar
     6     9    10   ar
     7    10    11   ar
     8    11    12   ar
     9    12    13   ar
    10    13     1    1
    11     1     2   ar
    12     2     3   ar
    13     3     4   ar
    14     4    21    1
    15    21    22   am
    16    22    23    2
    17    22    25    1
    18    25    26    2
    19    26    27    1
    20    27    28   ar
    21    28    29   ar
    22    29    30   ar
    23    30    31    1
    24    30    32   ar
    25    32    33   ar
    26     4     5   ar
    27     5     6    1
    28     5     7   ar
    29    13    14   ar
    30    14    15   ar
    31    15    16   ar
    32    16     8   ar
    33    15    11   ar
    34     7     1   ar
    35    33    27   ar
    36    21    24    1
@<TRIPOS>MOLECULE
*****
 33 36 0 0 0
SMALL
GASTEIGER

@<TRIPOS>ATOM
      1 C          60.0146   90.2741    6.5520 C.ar    1  UNL1        0.0559
      2 C          60.9820   90.8536    5.5629 C.ar    1  UNL1        0.0061
      3 C          60.4729   91.5679    4.3461 C.ar    1  UNL1        0.0171
      4 C          58.9964   91.7027    4.1185 C.ar    1  UNL1        0.0784
      5 C          58.0291   91.1231    5.1077 C.ar    1  UNL1        0.1536
      6 F          56.5525   91.2580    4.8800 F       1  UNL1       -0.2029
      7 C          58.5382   90.4088    6.3244 C.ar    1  UNL1        0.0356
      8 C          62.5980   87.8250   11.9309 C.ar    1  UNL1       -0.0149
      9 C          61.7803   86.6214   11.5665 C.ar    1  UNL1       -0.0007
     10 C          60.9306   86.6383   10.3305 C.ar    1  UNL1        0.0388
     11 C          60.8984   87.8586    9.4590 C.ar    1  UNL1        0.1647
     12 O          60.1616   88.1661    8.1892 O.2     1  UNL1       -0.4346
     13 C          60.5238   89.5597    7.7688 C.ar    1  UNL1        0.2297
     14 N          61.4846   90.1136    8.7789 N.ar    1  UNL1       -0.2083
     15 C          61.7161   89.0622    9.8235 C.ar    1  UNL1        0.1186
     16 C          62.5659   89.0453   11.0594 C.ar    1  UNL1        0.0184
     17 C          63.4478   87.8081   13.1669 C.3     1  UNL1        0.0680
     18 O          62.4041   89.7331   14.5653 O.co2   1  UNL1       -0.5488
     19 C          63.6095   89.0562   13.9829 C.2     1  UNL1        0.0547
     20 O          64.9765   89.6276   14.2167 O.co2   1  UNL1       -0.5488
     21 N          58.4872   92.4170    2.9017 N.am    1  UNL1       -0.2786
     22 C          59.4521   92.9262    1.8723 C.2     1  UNL1        0.2497
     23 O          60.9262   92.7211    2.0598 O.2     1  UNL1       -0.2698
     24 H          57.5198   92.5516    2.7787 H       1  UNL1        0.1552
     25 C          58.9430   93.6405    0.6556 C.2     1  UNL1        0.0580
     26 C          58.4299   92.8556   -0.5151 C.2     1  UNL1        0.0047
     27 C          57.9208   93.5699   -1.7319 C.ar    1  UNL1        0.0002
     28 C          56.8946   94.6547   -1.5902 C.ar    1  UNL1        0.0005
     29 C          56.3855   95.3690   -2.8071 C.ar    1  UNL1        0.0067
     30 C          56.9026   94.9985   -4.1655 C.ar    1  UNL1        0.0346
     31 BR         56.3935   95.7128   -5.3823 Br      1  UNL1       -0.0490
     32 C          57.9288   93.9137   -4.3071 C.ar    1  UNL1        0.0067
     33 C          58.4379   93.1994   -3.0904 C.ar    1  UNL1        0.0005
@<TRIPOS>UNITY_ATOM_ATTR
18 1
charge -1
@<TRIPOS>BOND
     1    18    19   ar
     2    19    20   ar
     3    19    17    1
     4    17     8    1
     5     8     9   ar
     6     9    10   ar
     7    10    11   ar
     8    11    12   ar
     9    12    13   ar
    10    13     1    1
    11     1     2   ar
    12     2     3   ar
    13     3     4   ar
    14     4    21    1
    15    21    22   am
    16    22    23    2
    17    22    25    1
    18    25    26    2
    19    26    27    1
    20    27    28   ar
    21    28    29   ar
    22    29    30   ar
    23    30    31    1
    24    30    32   ar
    25    32    33   ar
    26     4     5   ar
    27     5     6    1
    28     5     7   ar
    29    13    14   ar
    30    14    15   ar
    31    15    16   ar
    32    16     8   ar
    33    15    11   ar
    34     7     1   ar
    35    33    27   ar
    36    21    24    1
@<TRIPOS>MOLECULE
*****
 33 36 0 0 0
SMALL
GASTEIGER

@<TRIPOS>ATOM
      1 C          60.7593   87.3177    8.9322 C.ar    1  UNL1        0.0559
      2 C          60.4192   86.8300    7.5551 C.ar    1  UNL1        0.0061
      3 C          59.8715   87.7842    6.5355 C.ar    1  UNL1        0.0171
      4 C          59.6639   89.2261    6.8932 C.ar    1  UNL1        0.0784
      5 C          60.0040   89.7137    8.2703 C.ar    1  UNL1        0.1536
      6 F          59.7964   91.1557    8.6279 F       1  UNL1       -0.2029
      7 C          60.5518   88.7595    9.2898 C.ar    1  UNL1        0.0356
      8 C          62.9793   83.7495   13.8255 C.ar    1  UNL1       -0.0149
      9 C          63.2181   82.7346   12.7472 C.ar    1  UNL1       -0.0007
     10 C          62.8631   83.0535   11.3251 C.ar    1  UNL1        0.0388
     11 C          62.2694   84.3874   10.9814 C.ar    1  UNL1        0.1647
     12 O          61.8222   84.9813    9.6786 O.2     1  UNL1       -0.4346
     13 C          61.3071   86.3634    9.9517 C.ar    1  UNL1        0.2297
     14 N          61.4359   86.6236   11.4234 N.ar    1  UNL1       -0.2083
     15 C          62.0306   85.4023   12.0597 C.ar    1  UNL1        0.1186
     16 C          62.3856   85.0834   13.4818 C.ar    1  UNL1        0.0184
     17 C          63.3343   83.4306   15.2476 C.3     1  UNL1        0.0680
     18 O          64.6750   85.3810   16.3192 O.co2   1  UNL1       -0.5488
     19 C          63.4393   84.5327   16.2596 C.2     1  UNL1        0.0547
     20 O          62.3087   84.7865   17.2121 O.co2   1  UNL1       -0.5488
     21 N          59.1162   90.1804    5.8736 N.am    1  UNL1       -0.2786
     22 C          60.0514   91.0021    5.0369 C.2     1  UNL1        0.2497
     23 O          61.5343   90.8696    5.2197 O.2     1  UNL1       -0.2698
     24 H          58.1429   90.2673    5.7537 H       1  UNL1        0.1552
     25 C          59.5037   91.9564    4.0174 C.2     1  UNL1        0.0580
     26 C          60.4080   92.5352    2.9699 C.2     1  UNL1        0.0047
     27 C          59.8603   93.4894    1.9504 C.ar    1  UNL1        0.0002
     28 C          60.1968   94.9489    2.0323 C.ar    1  UNL1        0.0005
     29 C          59.6490   95.9032    1.0127 C.ar    1  UNL1        0.0067
     30 C          58.7649   95.3979   -0.0887 C.ar    1  UNL1        0.0346
     31 BR         58.2172   96.3522   -1.1082 Br      1  UNL1       -0.0490
     32 C          58.4285   93.9385   -0.1705 C.ar    1  UNL1        0.0067
     33 C          58.9761   92.9842    0.8490 C.ar    1  UNL1        0.0005
@<TRIPOS>UNITY_ATOM_ATTR
18 1
charge -1
@<TRIPOS>BOND
     1    18    19   ar
     2    19    20   ar
     3    19    17    1
     4    17     8    1
     5     8     9   ar
     6     9    10   ar
     7    10    11   ar
     8    11    12   ar
     9    12    13   ar
    10    13     1    1
    11     1     2   ar
    12     2     3   ar
    13     3     4   ar
    14     4    21    1
    15    21    22   am
    16    22    23    2
    17    22    25    1
    18    25    26    2
    19    26    27    1
    20    27    28   ar
    21    28    29   ar
    22    29    30   ar
    23    30    31    1
    24    30    32   ar
    25    32    33   ar
    26     4     5   ar
    27     5     6    1
    28     5     7   ar
    29    13    14   ar
    30    14    15   ar
    31    15    16   ar
    32    16     8   ar
    33    15    11   ar
    34     7     1   ar
    35    33    27   ar
    36    21    24    1
@<TRIPOS>MOLECULE
*****
 33 36 0 0 0
SMALL
GASTEIGER

@<TRIPOS>ATOM
      1 C          59.9028   90.2094    6.1411 C.ar    1  UNL1        0.0559
      2 C          58.4496   90.4497    5.8578 C.ar    1  UNL1        0.0061
      3 C          58.0446   91.3680    4.7432 C.ar    1  UNL1        0.0171
      4 C          59.0929   92.0461    3.9118 C.ar    1  UNL1        0.0784
      5 C          60.5462   91.8058    4.1950 C.ar    1  UNL1        0.1536
      6 F          61.5945   92.4839    3.3636 F       1  UNL1       -0.2029
      7 C          60.9511   90.8874    5.3097 C.ar    1  UNL1        0.0356
      8 C          61.9887   86.8539   11.2396 C.ar    1  UNL1       -0.0149
      9 C          61.2758   85.7200   10.5643 C.ar    1  UNL1       -0.0007
     10 C          60.5686   85.9484    9.2614 C.ar    1  UNL1        0.0388
     11 C          60.5744   87.3107    8.6336 C.ar    1  UNL1        0.1647
     12 O          59.9690   87.8338    7.3648 O.2     1  UNL1       -0.4346
     13 C          60.3078   89.2909    7.2559 C.ar    1  UNL1        0.2297
     14 N          61.1226   89.6685    8.4574 N.ar    1  UNL1       -0.2083
     15 C          61.2874   88.4445    9.3089 C.ar    1  UNL1        0.1186
     16 C          61.9945   88.2161   10.6118 C.ar    1  UNL1        0.0184
     17 C          62.6959   86.6255   12.5426 C.3     1  UNL1        0.0680
     18 O          62.3614   84.7457   14.3047 O.co2   1  UNL1       -0.5488
     19 C          62.9612   85.2274   13.0169 C.2     1  UNL1        0.0547
     20 O          63.8264   84.3110   12.2035 O.co2   1  UNL1       -0.5488
     21 N          58.6879   92.9645    2.7970 N.am    1  UNL1       -0.2786
     22 C          59.3014   92.8092    1.4370 C.2     1  UNL1        0.2497
     23 O          60.3199   91.7355    1.1918 O.2     1  UNL1       -0.2698
     24 H          58.0195   93.6691    2.9580 H       1  UNL1        0.1552
     25 C          58.8965   93.7275    0.3223 C.2     1  UNL1        0.0580
     26 C          58.6157   93.1721   -1.0425 C.2     1  UNL1        0.0047
     27 C          58.2108   94.0905   -2.1572 C.ar    1  UNL1        0.0002
     28 C          57.6027   95.4257   -1.8455 C.ar    1  UNL1        0.0005
     29 C          57.1978   96.3441   -2.9603 C.ar    1  UNL1        0.0067
     30 C          57.4010   95.9271   -4.3868 C.ar    1  UNL1        0.0346
     31 BR         56.9961   96.8455   -5.5016 Br      1  UNL1       -0.0490
     32 C          58.0091   94.5919   -4.6985 C.ar    1  UNL1        0.0067
     33 C          58.4140   93.6735   -3.5837 C.ar    1  UNL1        0.0005
@<TRIPOS>UNITY_ATOM_ATTR
18 1
charge -1
@<TRIPOS>BOND
     1    18    19   ar
     2    19    20   ar
     3    19    17    1
     4    17     8    1
     5     8     9   ar
     6     9    10   ar
     7    10    11   ar
     8    11    12   ar
     9    12    13   ar
    10    13     1    1
    11     1     2   ar
    12     2     3   ar
    13     3     4   ar
    14     4    21    1
    15    21    22   am
    16    22    23    2
    17    22    25    1
    18    25    26    2
    19    26    27    1
    20    27    28   ar
    21    28    29   ar
    22    29    30   ar
    23    30    31    1
    24    30    32   ar
    25    32    33   ar
    26     4     5   ar
    27     5     6    1
    28     5     7   ar
    29    13    14   ar
    30    14    15   ar
    31    15    16   ar
    32    16     8   ar
    33    15    11   ar
    34     7     1   ar
    35    33    27   ar
    36    21    24    1
