@<TRIPOS>MOLECULE
*****
 37 41 0 0 0
SMALL
GASTEIGER

@<TRIPOS>ATOM
      1 C          61.8699   88.3367   10.2170 C.3     1  UNL1        0.0312
      2 C          62.4752   87.4583   11.2715 C.2     1  UNL1        0.0121
      3 C          62.3902   85.9661   11.1443 C.2     1  UNL1       -0.0081
      4 C          62.9954   85.0878   12.1987 C.2     1  UNL1       -0.0194
      5 C          63.6858   85.7015   13.3806 C.2     1  UNL1        0.0425
      6 C          63.7708   87.1937   13.5079 C.2     1  UNL1        0.2231
      7 N          64.3836   88.0785   14.5526 N.2     1  UNL1       -0.0378
      8 C          64.1570   89.5038   14.1438 C.2     1  UNL1        0.3605
      9 N          63.4042   89.4998   12.8464 N.2     1  UNL1       -0.0547
     10 C          63.1655   88.0720   12.4534 C.3     1  UNL1        0.2975
     11 C          64.6047   90.7197   14.8996 C.3     1  UNL1        0.2246
     12 C          65.6960   91.5872   14.3461 C.2     1  UNL1        0.0436
     13 C          66.1436   92.8031   15.1020 C.2     1  UNL1        0.0288
     14 C          65.4999   93.1515   16.4113 C.2     1  UNL1        0.0896
     15 N          64.4086   92.2839   16.9648 N.am    1  UNL1       -0.1770
     16 C          63.9610   91.0680   16.2089 C.2     1  UNL1        0.2627
     17 O          62.8697   90.2005   16.7624 O.2     1  UNL1       -0.2719
     18 N          66.3397   91.2390   13.0368 N.pl3   1  UNL1       -0.3335
     19 H          66.2147   90.3424   12.6499 H       1  UNL1        0.1466
     20 C          67.1739   92.2568   12.3169 C.3     1  UNL1        0.1136
     21 C          66.8852   92.5836   10.8817 C.3     1  UNL1        0.1486
     22 N          66.9186   94.0090   10.4157 N.ar    1  UNL1       -0.2468
     23 C          67.2381   94.4750    9.0262 C.ar    1  UNL1        0.1081
     24 C          67.1554   95.9726    9.0091 C.ar    1  UNL1        0.0972
     25 CL         67.4003   96.8557    7.8216 Cl      1  UNL1       -0.0789
     26 C          66.7848   96.4322   10.3880 C.ar    1  UNL1        0.1330
     27 N          66.6384   95.2186   11.2574 N.ar    1  UNL1       -0.1667
     28 C          62.9104   83.5955   12.0714 C.3     1  UNL1        0.0252
     29 C          63.3732   82.9226   10.8132 C.3     1  UNL1        0.0217
     30 C          63.2882   81.4304   10.6859 C.3     1  UNL1        0.0725
     31 N          62.7404   80.6112   11.8167 N.3     1  UNL1       -0.2706
     32 C          62.2776   81.2842   13.0749 C.3     1  UNL1        0.0725
     33 C          62.3627   82.7763   13.2022 C.3     1  UNL1        0.0217
     34 C          62.6553   79.1191   11.6895 C.3     1  UNL1        0.1042
     35 C          62.7226   78.4767   10.3356 C.3     1  UNL1        0.1544
     36 O          63.3676   77.1321   10.1745 O.3     1  UNL1       -0.3805
     37 H          64.3155   77.2030   10.3678 H       1  UNL1        0.2105
@<TRIPOS>BOND
     1     1     2    1
     2     2     3    2
     3     3     4    1
     4     4    28    1
     5    28    29    1
     6    29    30    1
     7    30    31    1
     8    31    34    1
     9    34    35    1
    10    35    36    1
    11    31    32    1
    12    32    33    1
    13     4     5    2
    14     5     6    1
    15     6     7    2
    16     7     8    1
    17     8    11    1
    18    11    12    1
    19    12    18    1
    20    18    20    1
    21    20    21    1
    22    21    22    1
    23    22    23   ar
    24    23    24   ar
    25    24    25    1
    26    24    26   ar
    27    26    27   ar
    28    12    13    2
    29    13    14    1
    30    14    15    2
    31    15    16    1
    32    16    17    2
    33     8     9    2
    34     9    10    1
    35    10     2    1
    36    33    28    1
    37    10     6    1
    38    16    11    1
    39    27    22   ar
    40    36    37    1
    41    18    19    1
@<TRIPOS>MOLECULE
*****
 37 41 0 0 0
SMALL
GASTEIGER

@<TRIPOS>ATOM
      1 C          63.0688   88.5688   17.7317 C.3     1  UNL1        0.0312
      2 C          63.3973   87.9655   16.3982 C.2     1  UNL1        0.0121
      3 C          63.1727   86.5014   16.1617 C.2     1  UNL1       -0.0081
      4 C          63.5012   85.8980   14.8284 C.2     1  UNL1       -0.0194
      5 C          64.0543   86.7587   13.7314 C.2     1  UNL1        0.0425
      6 C          64.2789   88.2228   13.9679 C.2     1  UNL1        0.2231
      7 N          64.8075   89.3128   13.0834 N.2     1  UNL1       -0.0378
      8 C          64.8057   90.5899   13.8701 C.2     1  UNL1        0.3605
      9 N          64.2760   90.2892   15.2409 N.2     1  UNL1       -0.0547
     10 C          63.9504   88.8262   15.3013 C.3     1  UNL1        0.2975
     11 C          65.2547   91.9322   13.3734 C.3     1  UNL1        0.2246
     12 C          65.0476   92.3076   11.9360 C.2     1  UNL1        0.0436
     13 C          65.4967   93.6499   11.4393 C.2     1  UNL1        0.0288
     14 C          66.1528   94.6167   12.3799 C.2     1  UNL1        0.0896
     15 N          66.3599   94.2412   13.8173 N.am    1  UNL1       -0.1770
     16 C          65.9108   92.8989   14.3140 C.2     1  UNL1        0.2627
     17 O          66.1179   92.5235   15.7514 O.2     1  UNL1       -0.2719
     18 N          64.3915   91.3409   10.9953 N.pl3   1  UNL1       -0.3335
     19 H          64.9311   90.6564   10.5375 H       1  UNL1        0.1466
     20 C          62.9133   91.4171   10.7520 C.3     1  UNL1        0.1136
     21 C          61.9800   90.5294   11.5208 C.3     1  UNL1        0.1486
     22 N          61.7653   89.1103   11.0848 N.ar    1  UNL1       -0.2468
     23 C          62.4629   88.4217    9.9494 C.ar    1  UNL1        0.1081
     24 C          61.9440   87.0164    9.8706 C.ar    1  UNL1        0.0972
     25 CL         62.3688   85.9740    8.8791 Cl      1  UNL1       -0.0789
     26 C          60.9259   86.8365   10.9572 C.ar    1  UNL1        0.1330
     27 N          60.8154   88.1307   11.7077 N.ar    1  UNL1       -0.1667
     28 C          63.2765   84.4338   14.5919 C.3     1  UNL1        0.0252
     29 C          64.3808   83.5863   14.0330 C.3     1  UNL1        0.0217
     30 C          64.1562   82.1222   13.7965 C.3     1  UNL1        0.0725
     31 N          62.8273   81.5056   14.1189 N.3     1  UNL1       -0.2706
     32 C          61.7231   82.3531   14.6778 C.3     1  UNL1        0.0725
     33 C          61.9477   83.8172   14.9143 C.3     1  UNL1        0.0217
     34 C          62.6026   80.0415   13.8824 C.3     1  UNL1        0.1042
     35 C          62.6029   79.4990   12.4840 C.3     1  UNL1        0.1544
     36 O          62.7732   80.4282   11.3189 O.3     1  UNL1       -0.3805
     37 H          62.0071   81.0205   11.2630 H       1  UNL1        0.2105
@<TRIPOS>BOND
     1     1     2    1
     2     2     3    2
     3     3     4    1
     4     4    28    1
     5    28    29    1
     6    29    30    1
     7    30    31    1
     8    31    34    1
     9    34    35    1
    10    35    36    1
    11    31    32    1
    12    32    33    1
    13     4     5    2
    14     5     6    1
    15     6     7    2
    16     7     8    1
    17     8    11    1
    18    11    12    1
    19    12    18    1
    20    18    20    1
    21    20    21    1
    22    21    22    1
    23    22    23   ar
    24    23    24   ar
    25    24    25    1
    26    24    26   ar
    27    26    27   ar
    28    12    13    2
    29    13    14    1
    30    14    15    2
    31    15    16    1
    32    16    17    2
    33     8     9    2
    34     9    10    1
    35    10     2    1
    36    33    28    1
    37    10     6    1
    38    16    11    1
    39    27    22   ar
    40    36    37    1
    41    18    19    1
