@<TRIPOS>MOLECULE
*****
 30 33 0 0 0
SMALL
GASTEIGER

@<TRIPOS>ATOM
      1 C          63.0688   89.6810   11.9476 C.ar    1  UNL1        0.0686
      2 C          63.0228   90.6730   10.8234 C.ar    1  UNL1        0.1045
      3 N          63.8452   91.9254   10.8943 N.ar    1  UNL1       -0.2290
      4 C          64.7135   92.1859   12.0894 C.ar    1  UNL1        0.1319
      5 C          64.7594   91.1940   13.2136 C.ar    1  UNL1        0.0303
      6 C          63.9370   89.9414   13.1427 C.ar    1  UNL1       -0.0138
      7 O          60.7508   88.5077   11.9589 O.2     1  UNL1       -0.2701
      8 C          62.2464   88.4285   11.8768 C.2     1  UNL1        0.2471
      9 N          62.9197   87.0968   11.7238 N.am    1  UNL1       -0.3008
     10 H          63.9014   87.0449   11.6699 H       1  UNL1        0.1497
     11 C          62.0974   85.8444   11.6530 C.3     1  UNL1        0.0898
     12 C          62.6718   84.5422   12.1267 C.3     1  UNL1        0.0246
     13 C          62.6888   84.2185   13.5912 C.3     1  UNL1        0.0338
     14 C          63.2632   82.9164   14.0649 C.3     1  UNL1        0.1422
     15 O          63.8206   81.9378   13.0740 O.3     1  UNL1       -0.3538
     16 C          63.8035   82.2615   11.6095 C.3     1  UNL1        0.1422
     17 C          63.2291   83.5636   11.1358 C.3     1  UNL1        0.0338
     18 C          63.9829   88.9495   14.2669 C.3     1  UNL1        0.0226
     19 C          63.6595   88.5750   15.6829 C.3     1  UNL1        0.0047
     20 C          64.3858   87.6058   14.7980 C.3     1  UNL1        0.0047
     21 N          65.5359   93.4384   12.1602 N.pl3   1  UNL1       -0.2973
     22 H          65.5007   94.0055   12.9642 H       1  UNL1        0.1536
     23 C          66.4117   93.8268   11.0061 C.ar    1  UNL1        0.0609
     24 C          67.2323   92.7860   10.3038 C.ar    1  UNL1        0.0269
     25 C          68.1081   93.1745    9.1496 C.ar    1  UNL1        0.0590
     26 CL         68.9287   92.1336    8.4473 Cl      1  UNL1       -0.0822
     27 C          68.1635   94.6037    8.6979 C.ar    1  UNL1        0.0123
     28 C          67.3429   95.6445    9.4003 C.ar    1  UNL1        0.0135
     29 C          66.4671   95.2561   10.5544 C.ar    1  UNL1        0.0711
     30 CL         65.6465   96.2970   11.2568 Cl      1  UNL1       -0.0810
@<TRIPOS>BOND
     1     7     8    2
     2     8     9   am
     3     9    11    1
     4    11    12    1
     5    12    13    1
     6    13    14    1
     7    14    15    1
     8    15    16    1
     9    16    17    1
    10     8     1    1
    11     1     2   ar
    12     2     3   ar
    13     3     4   ar
    14     4    21    1
    15    21    23    1
    16    23    24   ar
    17    24    25   ar
    18    25    26    1
    19    25    27   ar
    20    27    28   ar
    21    28    29   ar
    22    29    30    1
    23     4     5   ar
    24     5     6   ar
    25     6    18    1
    26    18    19    1
    27    19    20    1
    28    17    12    1
    29     6     1   ar
    30    20    18    1
    31    29    23   ar
    32     9    10    1
    33    21    22    1
@<TRIPOS>MOLECULE
*****
 30 33 0 0 0
SMALL
GASTEIGER

@<TRIPOS>ATOM
      1 C          64.5808   90.4812   14.2266 C.ar    1  UNL1        0.0686
      2 C          65.6209   91.2349   15.0012 C.ar    1  UNL1        0.1045
      3 N          66.2259   92.4820   14.4278 N.ar    1  UNL1       -0.2290
      4 C          65.7907   92.9754   13.0798 C.ar    1  UNL1        0.1319
      5 C          64.7505   92.2217   12.3051 C.ar    1  UNL1        0.0303
      6 C          64.1456   90.9746   12.8786 C.ar    1  UNL1       -0.0138
      7 O          62.7157   89.3156   15.6096 O.2     1  UNL1       -0.2701
      8 C          63.9758   89.2342   14.7999 C.2     1  UNL1        0.2471
      9 N          64.6309   87.9056   14.5636 N.am    1  UNL1       -0.3008
     10 H          65.4579   87.8521   14.0322 H       1  UNL1        0.1497
     11 C          64.0259   86.6585   15.1370 C.3     1  UNL1        0.0898
     12 C          63.8278   85.4525   14.2672 C.3     1  UNL1        0.0246
     13 C          64.2135   84.0932   14.7706 C.3     1  UNL1        0.0338
     14 C          64.0154   82.8874   13.9008 C.3     1  UNL1        0.1422
     15 O          63.4316   83.0408   12.5276 O.3     1  UNL1       -0.3538
     16 C          63.0459   84.4001   12.0242 C.3     1  UNL1        0.1422
     17 C          63.2440   85.6060   12.8940 C.3     1  UNL1        0.0338
     18 C          63.1054   90.2209   12.1040 C.3     1  UNL1        0.0226
     19 C          62.7035   89.0268   11.2900 C.3     1  UNL1        0.0047
     20 C          61.7057   90.1097   11.5763 C.3     1  UNL1        0.0047
     21 N          66.3957   94.2225   12.5064 N.pl3   1  UNL1       -0.2973
     22 H          66.5139   95.0182   13.0740 H       1  UNL1        0.1536
     23 C          66.8206   94.2572   11.0682 C.ar    1  UNL1        0.0609
     24 C          67.6290   93.1300   10.4976 C.ar    1  UNL1        0.0269
     25 C          68.0540   93.1648    9.0595 C.ar    1  UNL1        0.0590
     26 CL         68.8625   92.0374    8.4888 Cl      1  UNL1       -0.0822
     27 C          67.6704   94.3268    8.1920 C.ar    1  UNL1        0.0123
     28 C          66.8620   95.4540    8.7626 C.ar    1  UNL1        0.0135
     29 C          66.4370   95.4192   10.2008 C.ar    1  UNL1        0.0711
     30 CL         65.6285   96.5466   10.7714 Cl      1  UNL1       -0.0810
@<TRIPOS>BOND
     1     7     8    2
     2     8     9   am
     3     9    11    1
     4    11    12    1
     5    12    13    1
     6    13    14    1
     7    14    15    1
     8    15    16    1
     9    16    17    1
    10     8     1    1
    11     1     2   ar
    12     2     3   ar
    13     3     4   ar
    14     4    21    1
    15    21    23    1
    16    23    24   ar
    17    24    25   ar
    18    25    26    1
    19    25    27   ar
    20    27    28   ar
    21    28    29   ar
    22    29    30    1
    23     4     5   ar
    24     5     6   ar
    25     6    18    1
    26    18    19    1
    27    19    20    1
    28    17    12    1
    29     6     1   ar
    30    20    18    1
    31    29    23   ar
    32     9    10    1
    33    21    22    1
@<TRIPOS>MOLECULE
*****
 30 33 0 0 0
SMALL
GASTEIGER

@<TRIPOS>ATOM
      1 C          63.0868   89.5555   11.9341 C.ar    1  UNL1        0.0686
      2 C          63.0530   90.5303   10.7945 C.ar    1  UNL1        0.1045
      3 N          63.8837   91.7780   10.8499 N.ar    1  UNL1       -0.2290
      4 C          64.7483   92.0510   12.0449 C.ar    1  UNL1        0.1319
      5 C          64.7821   91.0762   13.1845 C.ar    1  UNL1        0.0303
      6 C          63.9513   89.8284   13.1291 C.ar    1  UNL1       -0.0138
      7 O          60.7595   88.4008   11.9189 O.2     1  UNL1       -0.2701
      8 C          62.2561   88.3078   11.8787 C.2     1  UNL1        0.2471
      9 N          62.9219   86.9671   11.7830 N.am    1  UNL1       -0.3008
     10 H          63.9042   86.9060   11.7566 H       1  UNL1        0.1497
     11 C          62.0912   85.7194   11.7276 C.3     1  UNL1        0.0898
     12 C          62.6121   84.4445   12.3222 C.3     1  UNL1        0.0246
     13 C          63.0451   83.3215   11.4271 C.3     1  UNL1        0.0338
     14 C          63.5659   82.0467   12.0218 C.3     1  UNL1        0.1422
     15 O          63.6537   81.8949   13.5115 O.3     1  UNL1       -0.3538
     16 C          63.2207   83.0180   14.4066 C.3     1  UNL1        0.1422
     17 C          62.6999   84.2927   13.8120 C.3     1  UNL1        0.0338
     18 C          63.9852   88.8537   14.2686 C.3     1  UNL1        0.0226
     19 C          64.3503   87.5049   14.8139 C.3     1  UNL1        0.0047
     20 C          63.6786   88.5142   15.6972 C.3     1  UNL1        0.0047
     21 N          65.5790   93.2987   12.1003 N.pl3   1  UNL1       -0.2973
     22 H          65.7159   93.7612   12.9586 H       1  UNL1        0.1536
     23 C          66.2011   93.8417   10.8481 C.ar    1  UNL1        0.0609
     24 C          65.6410   95.0767   10.2070 C.ar    1  UNL1        0.0269
     25 C          66.2632   95.6198    8.9548 C.ar    1  UNL1        0.0590
     26 CL         65.7030   96.8549    8.3137 Cl      1  UNL1       -0.0822
     27 C          67.4454   94.9278    8.3437 C.ar    1  UNL1        0.0123
     28 C          68.0055   93.6928    8.9847 C.ar    1  UNL1        0.0135
     29 C          67.3834   93.1498   10.2370 C.ar    1  UNL1        0.0711
     30 CL         67.9435   91.9147   10.8780 Cl      1  UNL1       -0.0810
@<TRIPOS>BOND
     1     7     8    2
     2     8     9   am
     3     9    11    1
     4    11    12    1
     5    12    13    1
     6    13    14    1
     7    14    15    1
     8    15    16    1
     9    16    17    1
    10     8     1    1
    11     1     2   ar
    12     2     3   ar
    13     3     4   ar
    14     4    21    1
    15    21    23    1
    16    23    24   ar
    17    24    25   ar
    18    25    26    1
    19    25    27   ar
    20    27    28   ar
    21    28    29   ar
    22    29    30    1
    23     4     5   ar
    24     5     6   ar
    25     6    18    1
    26    18    19    1
    27    19    20    1
    28    17    12    1
    29     6     1   ar
    30    20    18    1
    31    29    23   ar
    32     9    10    1
    33    21    22    1
@<TRIPOS>MOLECULE
*****
 30 33 0 0 0
SMALL
GASTEIGER

@<TRIPOS>ATOM
      1 C          63.3298   90.4705   11.8788 C.ar    1  UNL1        0.0686
      2 C          63.4763   91.4473   10.7499 C.ar    1  UNL1        0.1045
      3 N          64.4498   92.5829   10.8624 N.ar    1  UNL1       -0.2290
      4 C          65.2768   92.7417   12.1037 C.ar    1  UNL1        0.1319
      5 C          65.1303   91.7649   13.2325 C.ar    1  UNL1        0.0303
      6 C          64.1568   90.6293   13.1201 C.ar    1  UNL1       -0.0138
      7 O          60.9840   89.4620   12.3587 O.2     1  UNL1       -0.2701
      8 C          62.3563   89.3349   11.7664 C.2     1  UNL1        0.2471
      9 N          62.7550   88.0722   11.0617 N.am    1  UNL1       -0.3008
     10 H          63.6556   87.9887   10.6729 H       1  UNL1        0.1497
     11 C          61.7815   86.9366   10.9493 C.3     1  UNL1        0.0898
     12 C          61.3070   86.4863    9.5994 C.3     1  UNL1        0.0246
     13 C          62.2069   85.6666    8.7230 C.3     1  UNL1        0.0338
     14 C          61.7324   85.2164    7.3732 C.3     1  UNL1        0.1422
     15 O          60.3578   85.5859    6.8997 O.3     1  UNL1       -0.3538
     16 C          59.4579   86.4056    7.7761 C.3     1  UNL1        0.1422
     17 C          59.9324   86.8558    9.1259 C.3     1  UNL1        0.0338
     18 C          64.0103   89.6524   14.2489 C.3     1  UNL1        0.0226
     19 C          63.5160   89.3238   15.6265 C.3     1  UNL1        0.0047
     20 C          64.2508   88.2892   14.8266 C.3     1  UNL1        0.0047
     21 N          66.2503   93.8773   12.2161 N.pl3   1  UNL1       -0.2973
     22 H          66.6062   94.1352   13.0970 H       1  UNL1        0.1536
     23 C          66.6816   94.6200   10.9863 C.ar    1  UNL1        0.0609
     24 C          67.2793   93.8738    9.8305 C.ar    1  UNL1        0.0269
     25 C          67.7106   94.6165    8.6007 C.ar    1  UNL1        0.0590
     26 CL         68.3083   93.8702    7.4449 Cl      1  UNL1       -0.0822
     27 C          67.5442   96.1054    8.5267 C.ar    1  UNL1        0.0123
     28 C          66.9465   96.8516    9.6825 C.ar    1  UNL1        0.0135
     29 C          66.5152   96.1089   10.9123 C.ar    1  UNL1        0.0711
     30 CL         65.9175   96.8552   12.0681 Cl      1  UNL1       -0.0810
@<TRIPOS>BOND
     1     7     8    2
     2     8     9   am
     3     9    11    1
     4    11    12    1
     5    12    13    1
     6    13    14    1
     7    14    15    1
     8    15    16    1
     9    16    17    1
    10     8     1    1
    11     1     2   ar
    12     2     3   ar
    13     3     4   ar
    14     4    21    1
    15    21    23    1
    16    23    24   ar
    17    24    25   ar
    18    25    26    1
    19    25    27   ar
    20    27    28   ar
    21    28    29   ar
    22    29    30    1
    23     4     5   ar
    24     5     6   ar
    25     6    18    1
    26    18    19    1
    27    19    20    1
    28    17    12    1
    29     6     1   ar
    30    20    18    1
    31    29    23   ar
    32     9    10    1
    33    21    22    1
@<TRIPOS>MOLECULE
*****
 30 33 0 0 0
SMALL
GASTEIGER

@<TRIPOS>ATOM
      1 C          64.0773   89.5556   13.6958 C.ar    1  UNL1        0.0686
      2 C          64.4397   88.5854   14.7808 C.ar    1  UNL1        0.1045
      3 N          64.0338   87.1459   14.6660 N.ar    1  UNL1       -0.2290
      4 C          63.2653   86.6767   13.4662 C.ar    1  UNL1        0.1319
      5 C          62.9029   87.6470   12.3812 C.ar    1  UNL1        0.0303
      6 C          63.3089   89.0865   12.4961 C.ar    1  UNL1       -0.0138
      7 O          63.8638   91.8675   14.8619 O.2     1  UNL1       -0.2701
      8 C          64.4832   90.9951   13.8106 C.2     1  UNL1        0.2471
      9 N          65.5086   91.5621   12.8740 N.am    1  UNL1       -0.3008
     10 H          65.9152   90.9896   12.1840 H       1  UNL1        0.1497
     11 C          65.9146   93.0016   12.9888 C.3     1  UNL1        0.0898
     12 C          66.3807   93.7485   11.7743 C.3     1  UNL1        0.0246
     13 C          66.2300   95.2394   11.7071 C.3     1  UNL1        0.0338
     14 C          66.6960   95.9863   10.4927 C.3     1  UNL1        0.1422
     15 O          67.3128   95.2423    9.3455 O.3     1  UNL1       -0.3538
     16 C          67.4635   93.7515    9.4127 C.3     1  UNL1        0.1422
     17 C          66.9974   93.0046   10.6271 C.3     1  UNL1        0.0338
     18 C          62.9464   90.0568   11.4111 C.3     1  UNL1        0.0226
     19 C          63.3328   91.1656   10.4777 C.3     1  UNL1        0.0047
     20 C          61.9323   90.6286   10.4654 C.3     1  UNL1        0.0047
     21 N          62.8594   85.2373   13.3514 N.pl3   1  UNL1       -0.2973
     22 H          62.3275   84.8174   14.0656 H       1  UNL1        0.1536
     23 C          63.2637   84.4376   12.1485 C.ar    1  UNL1        0.0609
     24 C          62.9759   84.9572   10.7712 C.ar    1  UNL1        0.0269
     25 C          63.3802   84.1575    9.5682 C.ar    1  UNL1        0.0590
     26 CL         63.0924   84.6771    8.1908 Cl      1  UNL1       -0.0822
     27 C          64.0724   82.8383    9.7427 C.ar    1  UNL1        0.0123
     28 C          64.3603   82.3187   11.1201 C.ar    1  UNL1        0.0135
     29 C          63.9559   83.1184   12.3230 C.ar    1  UNL1        0.0711
     30 CL         64.2438   82.5988   13.7004 Cl      1  UNL1       -0.0810
@<TRIPOS>BOND
     1     7     8    2
     2     8     9   am
     3     9    11    1
     4    11    12    1
     5    12    13    1
     6    13    14    1
     7    14    15    1
     8    15    16    1
     9    16    17    1
    10     8     1    1
    11     1     2   ar
    12     2     3   ar
    13     3     4   ar
    14     4    21    1
    15    21    23    1
    16    23    24   ar
    17    24    25   ar
    18    25    26    1
    19    25    27   ar
    20    27    28   ar
    21    28    29   ar
    22    29    30    1
    23     4     5   ar
    24     5     6   ar
    25     6    18    1
    26    18    19    1
    27    19    20    1
    28    17    12    1
    29     6     1   ar
    30    20    18    1
    31    29    23   ar
    32     9    10    1
    33    21    22    1
@<TRIPOS>MOLECULE
*****
 30 33 0 0 0
SMALL
GASTEIGER

@<TRIPOS>ATOM
      1 C          63.5111   89.2883   12.4977 C.ar    1  UNL1        0.0686
      2 C          62.8740   88.1136   11.8164 C.ar    1  UNL1        0.1045
      3 N          62.9386   86.7546   12.4480 N.ar    1  UNL1       -0.2290
      4 C          63.6403   86.5703   13.7610 C.ar    1  UNL1        0.1319
      5 C          64.2773   87.7451   14.4423 C.ar    1  UNL1        0.0303
      6 C          64.2127   89.1041   13.8106 C.ar    1  UNL1       -0.0138
      7 O          62.1264   91.2084   11.4271 O.2     1  UNL1       -0.2701
      8 C          63.4465   90.6473   11.8661 C.2     1  UNL1        0.2471
      9 N          64.7020   91.4453   11.6735 N.am    1  UNL1       -0.3008
     10 H          65.5684   91.0771   11.9616 H       1  UNL1        0.1497
     11 C          64.6374   92.8043   11.0419 C.3     1  UNL1        0.0898
     12 C          65.8816   93.4348   10.4900 C.3     1  UNL1        0.0246
     13 C          67.0429   92.5750   10.0875 C.3     1  UNL1        0.0338
     14 C          68.2871   93.2055    9.5356 C.3     1  UNL1        0.1422
     15 O          68.3698   94.6958    9.3863 O.3     1  UNL1       -0.3538
     16 C          67.2085   95.5555    9.7888 C.3     1  UNL1        0.1422
     17 C          65.9644   94.9250   10.3407 C.3     1  UNL1        0.0338
     18 C          64.8497   90.2788   14.4919 C.3     1  UNL1        0.0226
     19 C          66.0463   91.1522   14.7271 C.3     1  UNL1        0.0047
     20 C          64.7565   91.4401   15.4367 C.3     1  UNL1        0.0047
     21 N          63.7048   85.2113   14.3925 N.pl3   1  UNL1       -0.2973
     22 H          63.9150   85.1231   15.3503 H       1  UNL1        0.1536
     23 C          63.4492   83.9867   13.5649 C.ar    1  UNL1        0.0609
     24 C          64.0896   83.8461   12.2159 C.ar    1  UNL1        0.0269
     25 C          63.8340   82.6215   11.3882 C.ar    1  UNL1        0.0590
     26 CL         64.4745   82.4809   10.0391 Cl      1  UNL1       -0.0822
     27 C          62.9379   81.5375   11.9097 C.ar    1  UNL1        0.0123
     28 C          62.2974   81.6781   13.2587 C.ar    1  UNL1        0.0135
     29 C          62.5531   82.9027   14.0864 C.ar    1  UNL1        0.0711
     30 CL         61.9126   83.0433   15.4355 Cl      1  UNL1       -0.0810
@<TRIPOS>BOND
     1     7     8    2
     2     8     9   am
     3     9    11    1
     4    11    12    1
     5    12    13    1
     6    13    14    1
     7    14    15    1
     8    15    16    1
     9    16    17    1
    10     8     1    1
    11     1     2   ar
    12     2     3   ar
    13     3     4   ar
    14     4    21    1
    15    21    23    1
    16    23    24   ar
    17    24    25   ar
    18    25    26    1
    19    25    27   ar
    20    27    28   ar
    21    28    29   ar
    22    29    30    1
    23     4     5   ar
    24     5     6   ar
    25     6    18    1
    26    18    19    1
    27    19    20    1
    28    17    12    1
    29     6     1   ar
    30    20    18    1
    31    29    23   ar
    32     9    10    1
    33    21    22    1
@<TRIPOS>MOLECULE
*****
 30 33 0 0 0
SMALL
GASTEIGER

@<TRIPOS>ATOM
      1 C          63.7405   86.6601   13.8032 C.ar    1  UNL1        0.0686
      2 C          64.2856   87.6504   14.7891 C.ar    1  UNL1        0.1045
      3 N          64.2494   89.1171   14.4768 N.ar    1  UNL1       -0.2290
      4 C          63.6681   89.5935   13.1787 C.ar    1  UNL1        0.1319
      5 C          63.1230   88.6031   12.1928 C.ar    1  UNL1        0.0303
      6 C          63.1592   87.1363   12.5051 C.ar    1  UNL1       -0.0138
      7 O          65.0814   84.4537   14.0929 O.2     1  UNL1       -0.2701
      8 C          63.7767   85.1934   14.1154 C.2     1  UNL1        0.2471
      9 N          62.5080   84.4663   14.4501 N.am    1  UNL1       -0.3008
     10 H          61.6516   84.9517   14.4649 H       1  UNL1        0.1497
     11 C          62.5442   82.9996   14.7624 C.3     1  UNL1        0.0898
     12 C          62.6324   81.9978   13.6494 C.3     1  UNL1        0.0246
     13 C          62.9959   82.4452   12.2646 C.3     1  UNL1        0.0338
     14 C          63.0840   81.4434   11.1517 C.3     1  UNL1        0.1422
     15 O          62.8087   79.9942   11.4236 O.3     1  UNL1       -0.3538
     16 C          62.4452   79.5468   12.8084 C.3     1  UNL1        0.1422
     17 C          62.3570   80.5486   13.9213 C.3     1  UNL1        0.0338
     18 C          62.6140   86.1460   11.5192 C.3     1  UNL1        0.0226
     19 C          62.8342   85.0254   10.5467 C.3     1  UNL1        0.0047
     20 C          61.4496   85.5512   10.7841 C.3     1  UNL1        0.0047
     21 N          63.6319   91.0601   12.8664 N.pl3   1  UNL1       -0.2973
     22 H          62.8383   91.4523   12.4356 H       1  UNL1        0.1536
     23 C          64.8050   91.9294   13.2106 C.ar    1  UNL1        0.0609
     24 C          65.3322   91.9562   14.6145 C.ar    1  UNL1        0.0269
     25 C          66.5053   92.8254   14.9587 C.ar    1  UNL1        0.0590
     26 CL         67.0326   92.8522   16.3627 Cl      1  UNL1       -0.0822
     27 C          67.1510   93.6678   13.8988 C.ar    1  UNL1        0.0123
     28 C          66.6237   93.6410   12.4948 C.ar    1  UNL1        0.0135
     29 C          65.4507   92.7718   12.1507 C.ar    1  UNL1        0.0711
     30 CL         64.9234   92.7450   10.7466 Cl      1  UNL1       -0.0810
@<TRIPOS>BOND
     1     7     8    2
     2     8     9   am
     3     9    11    1
     4    11    12    1
     5    12    13    1
     6    13    14    1
     7    14    15    1
     8    15    16    1
     9    16    17    1
    10     8     1    1
    11     1     2   ar
    12     2     3   ar
    13     3     4   ar
    14     4    21    1
    15    21    23    1
    16    23    24   ar
    17    24    25   ar
    18    25    26    1
    19    25    27   ar
    20    27    28   ar
    21    28    29   ar
    22    29    30    1
    23     4     5   ar
    24     5     6   ar
    25     6    18    1
    26    18    19    1
    27    19    20    1
    28    17    12    1
    29     6     1   ar
    30    20    18    1
    31    29    23   ar
    32     9    10    1
    33    21    22    1
@<TRIPOS>MOLECULE
*****
 30 33 0 0 0
SMALL
GASTEIGER

@<TRIPOS>ATOM
      1 C          60.5906   87.6800    9.3150 C.ar    1  UNL1        0.0686
      2 C          60.5604   88.4697   10.5900 C.ar    1  UNL1        0.1045
      3 N          61.4390   88.0728   11.7390 N.ar    1  UNL1       -0.2290
      4 C          62.3479   86.8861   11.6132 C.ar    1  UNL1        0.1319
      5 C          62.3781   86.0963   10.3383 C.ar    1  UNL1        0.0303
      6 C          61.4994   86.4933    9.1892 C.ar    1  UNL1       -0.0138
      7 O          58.5783   87.1886    7.7469 O.2     1  UNL1       -0.2701
      8 C          59.7120   88.0769    8.1660 C.2     1  UNL1        0.2471
      9 N          59.9671   89.3622    7.4358 N.am    1  UNL1       -0.3008
     10 H          60.7112   89.9452    7.7108 H       1  UNL1        0.1497
     11 C          59.0885   89.7591    6.2867 C.3     1  UNL1        0.0898
     12 C          59.5929   90.7247    5.2555 C.3     1  UNL1        0.0246
     13 C          61.0479   90.7408    4.8914 C.3     1  UNL1        0.0338
     14 C          61.5522   91.7064    3.8602 C.3     1  UNL1        0.1422
     15 O          60.6016   92.6557    3.1932 O.3     1  UNL1       -0.3538
     16 C          59.1466   92.6396    3.5573 C.3     1  UNL1        0.1422
     17 C          58.6422   91.6740    4.5885 C.3     1  UNL1        0.0338
     18 C          61.5296   85.7036    7.9143 C.3     1  UNL1        0.0226
     19 C          60.8113   85.0880    6.7502 C.3     1  UNL1        0.0047
     20 C          62.3003   84.9514    6.8701 C.3     1  UNL1        0.0047
     21 N          63.2265   86.4891   12.7623 N.pl3   1  UNL1       -0.2973
     22 H          63.7415   87.1737   13.2476 H       1  UNL1        0.1536
     23 C          63.3205   85.0493   13.1721 C.ar    1  UNL1        0.0609
     24 C          62.9951   83.9662   12.1867 C.ar    1  UNL1        0.0269
     25 C          63.0891   82.5264   12.5965 C.ar    1  UNL1        0.0590
     26 CL         62.7636   81.4433   11.6110 Cl      1  UNL1       -0.0822
     27 C          63.5084   82.1695   13.9918 C.ar    1  UNL1        0.0123
     28 C          63.8338   83.2526   14.9772 C.ar    1  UNL1        0.0135
     29 C          63.7398   84.6924   14.5674 C.ar    1  UNL1        0.0711
     30 CL         64.0653   85.7755   15.5529 Cl      1  UNL1       -0.0810
@<TRIPOS>BOND
     1     7     8    2
     2     8     9   am
     3     9    11    1
     4    11    12    1
     5    12    13    1
     6    13    14    1
     7    14    15    1
     8    15    16    1
     9    16    17    1
    10     8     1    1
    11     1     2   ar
    12     2     3   ar
    13     3     4   ar
    14     4    21    1
    15    21    23    1
    16    23    24   ar
    17    24    25   ar
    18    25    26    1
    19    25    27   ar
    20    27    28   ar
    21    28    29   ar
    22    29    30    1
    23     4     5   ar
    24     5     6   ar
    25     6    18    1
    26    18    19    1
    27    19    20    1
    28    17    12    1
    29     6     1   ar
    30    20    18    1
    31    29    23   ar
    32     9    10    1
    33    21    22    1
@<TRIPOS>MOLECULE
*****
 30 33 0 0 0
SMALL
GASTEIGER

@<TRIPOS>ATOM
      1 C          61.1793   88.9930   10.4255 C.ar    1  UNL1        0.0686
      2 C          61.0384   90.3239   11.1029 C.ar    1  UNL1        0.1045
      3 N          61.9032   90.6610   12.2812 N.ar    1  UNL1       -0.2290
      4 C          62.9091   89.6673   12.7820 C.ar    1  UNL1        0.1319
      5 C          63.0501   88.3364   12.1046 C.ar    1  UNL1        0.0303
      6 C          62.1851   87.9993   10.9263 C.ar    1  UNL1       -0.0138
      7 O          59.5264   87.3796    9.2361 O.2     1  UNL1       -0.2701
      8 C          60.3145   88.6559    9.2472 C.2     1  UNL1        0.2471
      9 N          60.2376   89.5950    8.0801 N.am    1  UNL1       -0.3008
     10 H          60.7548   90.4327    8.0874 H       1  UNL1        0.1497
     11 C          59.3728   89.2579    6.9018 C.3     1  UNL1        0.0898
     12 C          59.0581   90.3077    5.8776 C.3     1  UNL1        0.0246
     13 C          57.6326   90.6878    5.6067 C.3     1  UNL1        0.0338
     14 C          57.3180   91.7375    4.5825 C.3     1  UNL1        0.1422
     15 O          58.4289   92.4071    3.8292 O.3     1  UNL1       -0.3538
     16 C          59.8544   92.0270    4.1001 C.3     1  UNL1        0.1422
     17 C          60.1690   90.9773    5.1243 C.3     1  UNL1        0.0338
     18 C          62.3261   86.6684   10.2488 C.3     1  UNL1        0.0226
     19 C          62.6145   85.8616    9.0177 C.3     1  UNL1        0.0047
     20 C          62.2818   85.1702   10.3066 C.3     1  UNL1        0.0047
     21 N          63.7740   90.0044   13.9603 N.pl3   1  UNL1       -0.2973
     22 H          63.6984   89.4827   14.7917 H       1  UNL1        0.1536
     23 C          64.7540   91.1365   13.8718 C.ar    1  UNL1        0.0609
     24 C          65.3520   91.5090   12.5476 C.ar    1  UNL1        0.0269
     25 C          66.3320   92.6411   12.4590 C.ar    1  UNL1        0.0590
     26 CL         66.9300   93.0137   11.1347 Cl      1  UNL1       -0.0822
     27 C          66.7141   93.4007   13.6948 C.ar    1  UNL1        0.0123
     28 C          66.1162   93.0282   15.0190 C.ar    1  UNL1        0.0135
     29 C          65.1361   91.8961   15.1075 C.ar    1  UNL1        0.0711
     30 CL         64.5381   91.5236   16.4318 Cl      1  UNL1       -0.0810
@<TRIPOS>BOND
     1     7     8    2
     2     8     9   am
     3     9    11    1
     4    11    12    1
     5    12    13    1
     6    13    14    1
     7    14    15    1
     8    15    16    1
     9    16    17    1
    10     8     1    1
    11     1     2   ar
    12     2     3   ar
    13     3     4   ar
    14     4    21    1
    15    21    23    1
    16    23    24   ar
    17    24    25   ar
    18    25    26    1
    19    25    27   ar
    20    27    28   ar
    21    28    29   ar
    22    29    30    1
    23     4     5   ar
    24     5     6   ar
    25     6    18    1
    26    18    19    1
    27    19    20    1
    28    17    12    1
    29     6     1   ar
    30    20    18    1
    31    29    23   ar
    32     9    10    1
    33    21    22    1
