@<TRIPOS>MOLECULE
*****
 29 32 0 0 0
SMALL
GASTEIGER

@<TRIPOS>ATOM
      1 C          61.6513   87.2742   10.1018 C.ar    1  UNL1        0.1194
      2 N          60.6964   87.5726    8.9843 N.ar    1  UNL1       -0.2208
      3 C          60.0862   88.9376    8.8634 C.ar    1  UNL1        0.2002
      4 N          60.4310   90.0041    9.8602 N.ar    1  UNL1       -0.2058
      5 C          61.3859   89.7058   10.9778 C.ar    1  UNL1        0.1695
      6 C          61.9961   88.3408   11.0987 C.ar    1  UNL1        0.1834
      7 O          62.9510   88.0424   12.2163 O.3     1  UNL1       -0.5020
      8 H          63.1664   88.7087   12.8389 H       1  UNL1        0.2924
      9 C          64.0920   81.8144   10.5852 C.3     1  UNL1        0.0310
     10 C          63.4818   83.1794   10.4644 C.ar    1  UNL1       -0.0218
     11 C          62.7421   83.7757   11.6251 C.ar    1  UNL1       -0.0042
     12 C          62.1319   85.1406   11.5043 C.ar    1  UNL1        0.0013
     13 C          62.2615   85.9093   10.2227 C.ar    1  UNL1        0.0208
     14 C          63.0012   85.3130    9.0620 C.ar    1  UNL1        0.0013
     15 C          63.6114   83.9480    9.1829 C.ar    1  UNL1       -0.0042
     16 N          61.7307   90.7723   11.9746 N.pl3   1  UNL1       -0.2954
     17 H          61.0144   91.2478   12.4543 H       1  UNL1        0.1537
     18 C          63.1668   91.1145   12.2404 C.ar    1  UNL1        0.0493
     19 C          63.7547   90.8785   13.6000 C.ar    1  UNL1        0.0149
     20 C          65.1908   91.2207   13.8658 C.ar    1  UNL1        0.0084
     21 C          66.0388   91.7990   12.7720 C.ar    1  UNL1        0.0815
     22 C          65.4508   92.0350   11.4124 C.ar    1  UNL1        0.0325
     23 C          64.0148   91.6928   11.1466 C.ar    1  UNL1        0.0146
     24 C          66.5233   92.6134   10.5376 C.3     1  UNL1        0.2269
     25 N          67.7742   92.7348   11.3566 N.pl3   1  UNL1       -0.2153
     26 C          67.4748   92.2315   12.7375 C.2     1  UNL1        0.3122
     27 N          68.4415   92.1712   13.8828 N.2     1  UNL1       -0.0993
     28 H          68.6397   93.0836   11.0428 H       1  UNL1        0.2926
     29 H          69.3683   92.4801   13.7615 H       1  UNL1        0.3633
@<TRIPOS>BOND
     1     9    10    1
     2    10    11   ar
     3    11    12   ar
     4    12    13   ar
     5    13     1    1
     6     1     2   ar
     7     2     3   ar
     8     3     4   ar
     9     4     5   ar
    10     5    16    1
    11    16    18    1
    12    18    19   ar
    13    19    20   ar
    14    20    21   ar
    15    21    22   ar
    16    22    23   ar
    17    22    24    1
    18    24    25    1
    19    25    26    1
    20    26    27    2
    21     5     6   ar
    22     6     7    1
    23    13    14   ar
    24    14    15   ar
    25    15    10   ar
    26     6     1   ar
    27    23    18   ar
    28    26    21    1
    29    16    17    1
    30    25    28    1
    31    27    29    1
    32     7     8    1
@<TRIPOS>MOLECULE
*****
 29 32 0 0 0
SMALL
GASTEIGER

@<TRIPOS>ATOM
      1 C          61.6992   86.4982   10.5555 C.ar    1  UNL1        0.1194
      2 N          60.7261   86.4857    9.4141 N.ar    1  UNL1       -0.2208
      3 C          59.9967   87.7409    9.0365 C.ar    1  UNL1        0.2002
      4 N          60.2405   89.0086    9.8003 N.ar    1  UNL1       -0.2058
      5 C          61.2136   89.0212   10.9418 C.ar    1  UNL1        0.1695
      6 C          61.9430   87.7660   11.3194 C.ar    1  UNL1        0.1834
      7 O          62.9161   87.7785   12.4608 O.3     1  UNL1       -0.5020
      8 H          63.0684   88.5704   12.9379 H       1  UNL1        0.2924
      9 C          64.6166   81.4775   12.0659 C.3     1  UNL1        0.0310
     10 C          63.8873   82.7327   11.6883 C.ar    1  UNL1       -0.0218
     11 C          63.9668   83.2526   10.2835 C.ar    1  UNL1       -0.0042
     12 C          63.2375   84.5078    9.9059 C.ar    1  UNL1        0.0013
     13 C          62.4285   85.2431   10.9331 C.ar    1  UNL1        0.0208
     14 C          62.3490   84.7231   12.3378 C.ar    1  UNL1        0.0013
     15 C          63.0783   83.4680   12.7154 C.ar    1  UNL1       -0.0042
     16 N          61.4574   90.2889   11.7055 N.pl3   1  UNL1       -0.2954
     17 H          60.7473   90.6652   12.2743 H       1  UNL1        0.1537
     18 C          62.7831   90.9833   11.6029 C.ar    1  UNL1        0.0493
     19 C          63.2510   91.5146   10.2805 C.ar    1  UNL1        0.0149
     20 C          64.5766   92.2090   10.1779 C.ar    1  UNL1        0.0084
     21 C          65.4343   92.3720   11.3976 C.ar    1  UNL1        0.0815
     22 C          64.9664   91.8407   12.7200 C.ar    1  UNL1        0.0325
     23 C          63.6408   91.1464   12.8226 C.ar    1  UNL1        0.0146
     24 C          66.0206   92.1474   13.7420 C.3     1  UNL1        0.2269
     25 N          67.1401   92.8682   13.0512 N.pl3   1  UNL1       -0.2153
     26 C          66.7778   93.0071   11.6023 C.2     1  UNL1        0.3122
     27 N          67.6123   93.6654   10.5439 N.2     1  UNL1       -0.0993
     28 H          67.9675   93.1931   13.4745 H       1  UNL1        0.2926
     29 H          68.4854   94.0557   10.7775 H       1  UNL1        0.3633
@<TRIPOS>BOND
     1     9    10    1
     2    10    11   ar
     3    11    12   ar
     4    12    13   ar
     5    13     1    1
     6     1     2   ar
     7     2     3   ar
     8     3     4   ar
     9     4     5   ar
    10     5    16    1
    11    16    18    1
    12    18    19   ar
    13    19    20   ar
    14    20    21   ar
    15    21    22   ar
    16    22    23   ar
    17    22    24    1
    18    24    25    1
    19    25    26    1
    20    26    27    2
    21     5     6   ar
    22     6     7    1
    23    13    14   ar
    24    14    15   ar
    25    15    10   ar
    26     6     1   ar
    27    23    18   ar
    28    26    21    1
    29    16    17    1
    30    25    28    1
    31    27    29    1
    32     7     8    1
@<TRIPOS>MOLECULE
*****
 29 32 0 0 0
SMALL
GASTEIGER

@<TRIPOS>ATOM
      1 C          63.7252   84.9839   12.9953 C.ar    1  UNL1        0.1194
      2 N          64.5045   85.0003   14.2769 N.ar    1  UNL1       -0.2208
      3 C          64.7028   86.2895   15.0177 C.ar    1  UNL1        0.2002
      4 N          64.1217   87.5622   14.4769 N.ar    1  UNL1       -0.2058
      5 C          63.3424   87.5458   13.1953 C.ar    1  UNL1        0.1695
      6 C          63.1441   86.2566   12.4545 C.ar    1  UNL1        0.1834
      7 O          62.3648   86.2402   11.1730 O.3     1  UNL1       -0.5020
      8 H          62.0018   87.0352   10.8352 H       1  UNL1        0.2924
      9 C          62.9323   79.8272   10.0322 C.3     1  UNL1        0.0310
     10 C          63.1306   81.1164   10.7730 C.ar    1  UNL1       -0.0218
     11 C          64.0276   82.1767   10.2063 C.ar    1  UNL1       -0.0042
     12 C          64.2258   83.4659   10.9471 C.ar    1  UNL1        0.0013
     13 C          63.5270   83.6947   12.2546 C.ar    1  UNL1        0.0208
     14 C          62.6300   82.6344   12.8212 C.ar    1  UNL1        0.0013
     15 C          62.4318   81.3452   12.0804 C.ar    1  UNL1       -0.0042
     16 N          62.7613   88.8185   12.6545 N.pl3   1  UNL1       -0.2954
     17 H          61.8116   88.8561   12.3979 H       1  UNL1        0.1537
     18 C          63.6272   90.0342   12.5047 C.ar    1  UNL1        0.0493
     19 C          63.6519   90.7819   11.2046 C.ar    1  UNL1        0.0149
     20 C          64.5178   91.9974   11.0549 C.ar    1  UNL1        0.0084
     21 C          65.3591   92.4654   12.2052 C.ar    1  UNL1        0.0815
     22 C          65.3344   91.7177   13.5053 C.ar    1  UNL1        0.0325
     23 C          64.4685   90.5021   13.6551 C.ar    1  UNL1        0.0146
     24 C          66.2642   92.4111   14.4565 C.3     1  UNL1        0.2269
     25 N          66.8636   93.5873   13.7442 N.pl3   1  UNL1       -0.2153
     26 C          66.3042   93.6209   12.3528 C.2     1  UNL1        0.3122
     27 N          66.6322   94.6323   11.2948 N.2     1  UNL1       -0.0993
     28 H          67.5105   94.2253   14.1233 H       1  UNL1        0.2926
     29 H          67.2684   95.3584   11.4882 H       1  UNL1        0.3633
@<TRIPOS>BOND
     1     9    10    1
     2    10    11   ar
     3    11    12   ar
     4    12    13   ar
     5    13     1    1
     6     1     2   ar
     7     2     3   ar
     8     3     4   ar
     9     4     5   ar
    10     5    16    1
    11    16    18    1
    12    18    19   ar
    13    19    20   ar
    14    20    21   ar
    15    21    22   ar
    16    22    23   ar
    17    22    24    1
    18    24    25    1
    19    25    26    1
    20    26    27    2
    21     5     6   ar
    22     6     7    1
    23    13    14   ar
    24    14    15   ar
    25    15    10   ar
    26     6     1   ar
    27    23    18   ar
    28    26    21    1
    29    16    17    1
    30    25    28    1
    31    27    29    1
    32     7     8    1
@<TRIPOS>MOLECULE
*****
 29 32 0 0 0
SMALL
GASTEIGER

@<TRIPOS>ATOM
      1 C          66.4736   93.1228   13.5300 C.ar    1  UNL1        0.1194
      2 N          67.5144   93.4431   14.5615 N.ar    1  UNL1       -0.2208
      3 C          67.3163   93.0140   15.9852 C.ar    1  UNL1        0.2002
      4 N          66.0775   92.2647   16.3772 N.ar    1  UNL1       -0.2058
      5 C          65.0366   91.9443   15.3456 C.ar    1  UNL1        0.1695
      6 C          65.2347   92.3734   13.9220 C.ar    1  UNL1        0.1834
      7 O          64.1939   92.0531   12.8904 O.3     1  UNL1       -0.5020
      8 H          63.4201   91.5849   13.1353 H       1  UNL1        0.2924
      9 C          67.2659   94.8390    7.8355 C.3     1  UNL1        0.0310
     10 C          67.0678   94.4099    9.2591 C.ar    1  UNL1       -0.0218
     11 C          66.4734   95.3625   10.2538 C.ar    1  UNL1       -0.0042
     12 C          66.2753   94.9335   11.6774 C.ar    1  UNL1        0.0013
     13 C          66.6717   93.5518   12.1063 C.ar    1  UNL1        0.0208
     14 C          67.2661   92.5993   11.1117 C.ar    1  UNL1        0.0013
     15 C          67.4641   93.0283    9.6881 C.ar    1  UNL1       -0.0042
     16 N          63.7978   91.1950   15.7376 N.pl3   1  UNL1       -0.2954
     17 H          62.9932   91.6873   16.0195 H       1  UNL1        0.1537
     18 C          63.7849   89.6954   15.7002 C.ar    1  UNL1        0.0493
     19 C          64.4528   88.9676   14.5715 C.ar    1  UNL1        0.0149
     20 C          64.4399   87.4681   14.5341 C.ar    1  UNL1        0.0084
     21 C          63.7590   86.6965   15.6255 C.ar    1  UNL1        0.0815
     22 C          63.0910   87.4244   16.7542 C.ar    1  UNL1        0.0325
     23 C          63.1040   88.9238   16.7916 C.ar    1  UNL1        0.0146
     24 C          62.5036   86.4023   17.6816 C.3     1  UNL1        0.2269
     25 N          62.8086   85.0427   17.1261 N.pl3   1  UNL1       -0.2153
     26 C          63.5844   85.2245   15.8553 C.2     1  UNL1        0.3122
     27 N          64.0959   84.1271   14.9699 N.2     1  UNL1       -0.0993
     28 H          62.5456   84.1821   17.5255 H       1  UNL1        0.2926
     29 H          63.9299   83.1860   15.2065 H       1  UNL1        0.3633
@<TRIPOS>BOND
     1     9    10    1
     2    10    11   ar
     3    11    12   ar
     4    12    13   ar
     5    13     1    1
     6     1     2   ar
     7     2     3   ar
     8     3     4   ar
     9     4     5   ar
    10     5    16    1
    11    16    18    1
    12    18    19   ar
    13    19    20   ar
    14    20    21   ar
    15    21    22   ar
    16    22    23   ar
    17    22    24    1
    18    24    25    1
    19    25    26    1
    20    26    27    2
    21     5     6   ar
    22     6     7    1
    23    13    14   ar
    24    14    15   ar
    25    15    10   ar
    26     6     1   ar
    27    23    18   ar
    28    26    21    1
    29    16    17    1
    30    25    28    1
    31    27    29    1
    32     7     8    1
@<TRIPOS>MOLECULE
*****
 29 32 0 0 0
SMALL
GASTEIGER

@<TRIPOS>ATOM
      1 C          60.9247   88.3673    9.9407 C.ar    1  UNL1        0.1194
      2 N          59.9014   89.4107    9.6030 N.ar    1  UNL1       -0.2208
      3 C          59.6302   90.5329   10.5607 C.ar    1  UNL1        0.2002
      4 N          60.3824   90.6118   11.8560 N.ar    1  UNL1       -0.2058
      5 C          61.4058   89.5685   12.1937 C.ar    1  UNL1        0.1695
      6 C          61.6770   88.4462   11.2361 C.ar    1  UNL1        0.1834
      7 O          62.7004   87.4029   11.5738 O.3     1  UNL1       -0.5020
      8 H          63.1703   87.4521   12.3830 H       1  UNL1        0.2924
      9 C          62.0094   83.8783    6.1103 C.3     1  UNL1        0.0310
     10 C          61.7382   85.0006    7.0679 C.ar    1  UNL1       -0.0218
     11 C          60.3941   85.6665    7.0817 C.ar    1  UNL1       -0.0042
     12 C          60.1230   86.7887    8.0394 C.ar    1  UNL1        0.0013
     13 C          61.1959   87.2451    8.9831 C.ar    1  UNL1        0.0208
     14 C          62.5399   86.5792    8.9693 C.ar    1  UNL1        0.0013
     15 C          62.8110   85.4570    8.0116 C.ar    1  UNL1       -0.0042
     16 N          62.1580   89.6474   13.4891 N.pl3   1  UNL1       -0.2954
     17 H          61.7973   89.2121   14.2951 H       1  UNL1        0.1537
     18 C          63.4600   90.3894   13.5564 C.ar    1  UNL1        0.0493
     19 C          64.3949   90.1608   14.7068 C.ar    1  UNL1        0.0149
     20 C          65.6968   90.9028   14.7740 C.ar    1  UNL1        0.0084
     21 C          66.0637   91.8734   13.6908 C.ar    1  UNL1        0.0815
     22 C          65.1287   92.1020   12.5404 C.ar    1  UNL1        0.0325
     23 C          63.8269   91.3600   12.4732 C.ar    1  UNL1        0.0146
     24 C          65.7561   93.1130   11.6271 C.3     1  UNL1        0.2269
     25 N          67.0789   93.5093   12.2131 N.pl3   1  UNL1       -0.2153
     26 C          67.2690   92.7432   13.4886 C.2     1  UNL1        0.3122
     27 N          68.4559   92.8313   14.4015 N.2     1  UNL1       -0.0993
     28 H          67.7112   94.1583   11.8281 H       1  UNL1        0.2926
     29 H          69.2021   93.4349   14.1819 H       1  UNL1        0.3633
@<TRIPOS>BOND
     1     9    10    1
     2    10    11   ar
     3    11    12   ar
     4    12    13   ar
     5    13     1    1
     6     1     2   ar
     7     2     3   ar
     8     3     4   ar
     9     4     5   ar
    10     5    16    1
    11    16    18    1
    12    18    19   ar
    13    19    20   ar
    14    20    21   ar
    15    21    22   ar
    16    22    23   ar
    17    22    24    1
    18    24    25    1
    19    25    26    1
    20    26    27    2
    21     5     6   ar
    22     6     7    1
    23    13    14   ar
    24    14    15   ar
    25    15    10   ar
    26     6     1   ar
    27    23    18   ar
    28    26    21    1
    29    16    17    1
    30    25    28    1
    31    27    29    1
    32     7     8    1
@<TRIPOS>MOLECULE
*****
 29 32 0 0 0
SMALL
GASTEIGER

@<TRIPOS>ATOM
      1 C          64.9014   91.6905   12.2153 C.ar    1  UNL1        0.1194
      2 N          65.4852   91.3052   13.5423 N.ar    1  UNL1       -0.2208
      3 C          64.7321   90.3817   14.4533 C.ar    1  UNL1        0.2002
      4 N          63.3952   89.8434   14.0374 N.ar    1  UNL1       -0.2058
      5 C          62.8114   90.2287   12.7104 C.ar    1  UNL1        0.1695
      6 C          63.5645   91.1522   11.7994 C.ar    1  UNL1        0.1834
      7 O          62.9807   91.5374   10.4725 O.3     1  UNL1       -0.5020
      8 H          62.1456   91.2011   10.2127 H       1  UNL1        0.2924
      9 C          67.9138   95.3845    8.5712 C.3     1  UNL1        0.0310
     10 C          67.1607   94.4610    9.4822 C.ar    1  UNL1       -0.0218
     11 C          67.6052   93.0371    9.6412 C.ar    1  UNL1       -0.0042
     12 C          66.8521   92.1136   10.5522 C.ar    1  UNL1        0.0013
     13 C          65.6545   92.6140   11.3043 C.ar    1  UNL1        0.0208
     14 C          65.2101   94.0377   11.1453 C.ar    1  UNL1        0.0013
     15 C          65.9632   94.9612   10.2343 C.ar    1  UNL1       -0.0042
     16 N          61.4745   89.6904   12.2945 N.pl3   1  UNL1       -0.2954
     17 H          60.6603   89.9734   12.7702 H       1  UNL1        0.1537
     18 C          61.3782   88.7209   11.1540 C.ar    1  UNL1        0.0493
     19 C          62.5666   87.8876   10.7755 C.ar    1  UNL1        0.0149
     20 C          62.4702   86.9181    9.6350 C.ar    1  UNL1        0.0084
     21 C          61.1854   86.7820    8.8729 C.ar    1  UNL1        0.0815
     22 C          59.9970   87.6153    9.2514 C.ar    1  UNL1        0.0325
     23 C          60.0934   88.5847   10.3919 C.ar    1  UNL1        0.0146
     24 C          58.8714   87.2657    8.3236 C.3     1  UNL1        0.2269
     25 N          59.3641   86.2163    7.3717 N.pl3   1  UNL1       -0.2153
     26 C          60.7943   85.9173    7.7112 C.2     1  UNL1        0.3122
     27 N          61.6781   84.9275    7.0118 N.2     1  UNL1       -0.0993
     28 H          58.8408   85.7973    6.6507 H       1  UNL1        0.2926
     29 H          61.3284   84.4040    6.2550 H       1  UNL1        0.3633
@<TRIPOS>BOND
     1     9    10    1
     2    10    11   ar
     3    11    12   ar
     4    12    13   ar
     5    13     1    1
     6     1     2   ar
     7     2     3   ar
     8     3     4   ar
     9     4     5   ar
    10     5    16    1
    11    16    18    1
    12    18    19   ar
    13    19    20   ar
    14    20    21   ar
    15    21    22   ar
    16    22    23   ar
    17    22    24    1
    18    24    25    1
    19    25    26    1
    20    26    27    2
    21     5     6   ar
    22     6     7    1
    23    13    14   ar
    24    14    15   ar
    25    15    10   ar
    26     6     1   ar
    27    23    18   ar
    28    26    21    1
    29    16    17    1
    30    25    28    1
    31    27    29    1
    32     7     8    1
@<TRIPOS>MOLECULE
*****
 29 32 0 0 0
SMALL
GASTEIGER

@<TRIPOS>ATOM
      1 C          65.3066   90.7761   14.2202 C.ar    1  UNL1        0.1194
      2 N          65.0431   89.4629   14.8955 N.ar    1  UNL1       -0.2208
      3 C          63.8912   88.6100   14.4533 C.ar    1  UNL1        0.2002
      4 N          63.0027   89.0703   13.3359 N.ar    1  UNL1       -0.2058
      5 C          63.2662   90.3835   12.6605 C.ar    1  UNL1        0.1695
      6 C          64.4181   91.2365   13.1027 C.ar    1  UNL1        0.1834
      7 O          64.6816   92.5497   12.4275 O.3     1  UNL1       -0.5020
      8 H          64.1266   92.8372   11.7295 H       1  UNL1        0.2924
      9 C          69.9144   94.1877   15.9890 C.3     1  UNL1        0.0310
     10 C          68.7625   93.3348   15.5468 C.ar    1  UNL1       -0.0218
     11 C          67.4950   93.3119   16.3488 C.ar    1  UNL1       -0.0042
     12 C          66.3431   92.4590   15.9066 C.ar    1  UNL1        0.0013
     13 C          66.4586   91.6290   14.6624 C.ar    1  UNL1        0.0208
     14 C          67.7260   91.6520   13.8605 C.ar    1  UNL1        0.0013
     15 C          68.8780   92.5049   14.3027 C.ar    1  UNL1       -0.0042
     16 N          62.3777   90.8438   11.5431 N.pl3   1  UNL1       -0.2954
     17 H          62.2483   91.8064   11.3817 H       1  UNL1        0.1537
     18 C          61.6863   89.8376   10.6716 C.ar    1  UNL1        0.0493
     19 C          60.2766   90.0795   10.2198 C.ar    1  UNL1        0.0149
     20 C          59.5852   89.0733    9.3482 C.ar    1  UNL1        0.0084
     21 C          60.3036   87.8252    8.9286 C.ar    1  UNL1        0.0815
     22 C          61.7133   87.5833    9.3804 C.ar    1  UNL1        0.0325
     23 C          62.4046   88.5895   10.2519 C.ar    1  UNL1        0.0146
     24 C          62.1637   86.2707    8.8110 C.3     1  UNL1        0.2269
     25 N          61.0324   85.7014    8.0073 N.pl3   1  UNL1       -0.2153
     26 C          59.8827   86.6621    8.0799 C.2     1  UNL1        0.3122
     27 N          58.5468   86.4900    7.4198 N.2     1  UNL1       -0.0993
     28 H          61.0426   84.8471    7.5180 H       1  UNL1        0.2926
     29 H          58.3645   85.6875    6.8796 H       1  UNL1        0.3633
@<TRIPOS>BOND
     1     9    10    1
     2    10    11   ar
     3    11    12   ar
     4    12    13   ar
     5    13     1    1
     6     1     2   ar
     7     2     3   ar
     8     3     4   ar
     9     4     5   ar
    10     5    16    1
    11    16    18    1
    12    18    19   ar
    13    19    20   ar
    14    20    21   ar
    15    21    22   ar
    16    22    23   ar
    17    22    24    1
    18    24    25    1
    19    25    26    1
    20    26    27    2
    21     5     6   ar
    22     6     7    1
    23    13    14   ar
    24    14    15   ar
    25    15    10   ar
    26     6     1   ar
    27    23    18   ar
    28    26    21    1
    29    16    17    1
    30    25    28    1
    31    27    29    1
    32     7     8    1
@<TRIPOS>MOLECULE
*****
 29 32 0 0 0
SMALL
GASTEIGER

@<TRIPOS>ATOM
      1 C          66.3525   92.8302   12.3150 C.ar    1  UNL1        0.1194
      2 N          67.4229   92.4463   13.2932 N.ar    1  UNL1       -0.2208
      3 C          67.1220   91.4658   14.3877 C.ar    1  UNL1        0.2002
      4 N          65.7507   90.8692   14.5041 N.ar    1  UNL1       -0.2058
      5 C          64.6802   91.2531   13.5259 C.ar    1  UNL1        0.1695
      6 C          64.9811   92.2336   12.4314 C.ar    1  UNL1        0.1834
      7 O          63.9107   92.6175   11.4532 O.3     1  UNL1       -0.5020
      8 H          63.0541   92.2448   11.5259 H       1  UNL1        0.2924
      9 C          67.5561   96.7523    7.9368 C.3     1  UNL1        0.0310
     10 C          67.2552   95.7718    9.0314 C.ar    1  UNL1       -0.0218
     11 C          67.6079   94.3240    8.8592 C.ar    1  UNL1       -0.0042
     12 C          67.3070   93.3435    9.9538 C.ar    1  UNL1        0.0013
     13 C          66.6534   93.8107   11.2205 C.ar    1  UNL1        0.0208
     14 C          66.3007   95.2584   11.3926 C.ar    1  UNL1        0.0013
     15 C          66.6016   96.2390   10.2981 C.ar    1  UNL1       -0.0042
     16 N          63.3089   90.6565   13.6423 N.pl3   1  UNL1       -0.2954
     17 H          62.7535   90.8495   14.4320 H       1  UNL1        0.1537
     18 C          62.7838   89.7657   12.5556 C.ar    1  UNL1        0.0493
     19 C          63.2647   88.3489   12.4493 C.ar    1  UNL1        0.0149
     20 C          62.7396   87.4582   11.3627 C.ar    1  UNL1        0.0084
     21 C          61.7336   87.9844   10.3823 C.ar    1  UNL1        0.0815
     22 C          61.2527   89.4012   10.4885 C.ar    1  UNL1        0.0325
     23 C          61.7779   90.2919   11.5752 C.ar    1  UNL1        0.0146
     24 C          60.2634   89.6388    9.3864 C.3     1  UNL1        0.2269
     25 N          60.1329   88.3688    8.5989 N.pl3   1  UNL1       -0.2153
     26 C          61.0415   87.3463    9.2143 C.2     1  UNL1        0.3122
     27 N          61.2256   85.9338    8.7445 N.2     1  UNL1       -0.0993
     28 H          59.5527   88.2307    7.8156 H       1  UNL1        0.2926
     29 H          60.7238   85.6053    7.9638 H       1  UNL1        0.3633
@<TRIPOS>BOND
     1     9    10    1
     2    10    11   ar
     3    11    12   ar
     4    12    13   ar
     5    13     1    1
     6     1     2   ar
     7     2     3   ar
     8     3     4   ar
     9     4     5   ar
    10     5    16    1
    11    16    18    1
    12    18    19   ar
    13    19    20   ar
    14    20    21   ar
    15    21    22   ar
    16    22    23   ar
    17    22    24    1
    18    24    25    1
    19    25    26    1
    20    26    27    2
    21     5     6   ar
    22     6     7    1
    23    13    14   ar
    24    14    15   ar
    25    15    10   ar
    26     6     1   ar
    27    23    18   ar
    28    26    21    1
    29    16    17    1
    30    25    28    1
    31    27    29    1
    32     7     8    1
@<TRIPOS>MOLECULE
*****
 29 32 0 0 0
SMALL
GASTEIGER

@<TRIPOS>ATOM
      1 C          64.3268   91.0992   12.3016 C.ar    1  UNL1        0.1194
      2 N          64.1367   91.8709   11.0295 N.ar    1  UNL1       -0.2208
      3 C          63.1294   91.4119   10.0173 C.ar    1  UNL1        0.2002
      4 N          62.3122   90.1812   10.2771 N.ar    1  UNL1       -0.2058
      5 C          62.5023   89.4094   11.5493 C.ar    1  UNL1        0.1695
      6 C          63.5096   89.8685   12.5616 C.ar    1  UNL1        0.1834
      7 O          63.6997   89.0968   13.8337 O.3     1  UNL1       -0.5020
      8 H          63.1892   88.3280   13.9960 H       1  UNL1        0.2924
      9 C          68.3560   92.9353   16.3506 C.3     1  UNL1        0.0310
     10 C          67.3487   92.4762   15.3384 C.ar    1  UNL1       -0.0218
     11 C          67.7558   92.2890   13.9068 C.ar    1  UNL1       -0.0042
     12 C          66.7485   91.8300   12.8946 C.ar    1  UNL1        0.0013
     13 C          65.3341   91.5582   13.3139 C.ar    1  UNL1        0.0208
     14 C          64.9271   91.7455   14.7454 C.ar    1  UNL1        0.0013
     15 C          65.9344   92.2045   15.7576 C.ar    1  UNL1       -0.0042
     16 N          61.6851   88.1788   11.8092 N.pl3   1  UNL1       -0.2954
     17 H          60.7601   88.2620   12.1358 H       1  UNL1        0.1537
     18 C          62.2772   86.8212   11.5714 C.ar    1  UNL1        0.0493
     19 C          62.1986   86.1967   10.2098 C.ar    1  UNL1        0.0149
     20 C          62.7907   84.8392    9.9721 C.ar    1  UNL1        0.0084
     21 C          63.4615   84.1062   11.0958 C.ar    1  UNL1        0.0815
     22 C          63.5401   84.7307   12.4573 C.ar    1  UNL1        0.0325
     23 C          62.9480   86.0882   12.6951 C.ar    1  UNL1        0.0146
     24 C          64.2579   83.7758   13.3645 C.3     1  UNL1        0.2269
     25 N          64.6228   82.5611   12.5636 N.pl3   1  UNL1       -0.2153
     26 C          64.1306   82.7653   11.1615 C.2     1  UNL1        0.3122
     27 N          64.2811   81.7984   10.0247 N.2     1  UNL1       -0.0993
     28 H          65.1014   81.7689   12.8994 H       1  UNL1        0.2926
     29 H          64.7385   80.9383   10.1672 H       1  UNL1        0.3633
@<TRIPOS>BOND
     1     9    10    1
     2    10    11   ar
     3    11    12   ar
     4    12    13   ar
     5    13     1    1
     6     1     2   ar
     7     2     3   ar
     8     3     4   ar
     9     4     5   ar
    10     5    16    1
    11    16    18    1
    12    18    19   ar
    13    19    20   ar
    14    20    21   ar
    15    21    22   ar
    16    22    23   ar
    17    22    24    1
    18    24    25    1
    19    25    26    1
    20    26    27    2
    21     5     6   ar
    22     6     7    1
    23    13    14   ar
    24    14    15   ar
    25    15    10   ar
    26     6     1   ar
    27    23    18   ar
    28    26    21    1
    29    16    17    1
    30    25    28    1
    31    27    29    1
    32     7     8    1
