@<TRIPOS>MOLECULE
*****
 32 34 0 0 0
SMALL
GASTEIGER

@<TRIPOS>ATOM
      1 C          66.0090   91.6556   13.9731 C.ar    1  UNL1        0.1518
      2 C          65.0191   90.5820   14.3157 C.ar    1  UNL1        0.0396
      3 C          63.9251   90.2345   13.3501 C.ar    1  UNL1        0.0234
      4 C          63.8210   90.9607   12.0418 C.ar    1  UNL1        0.1266
      5 C          64.8108   92.0344   11.6991 C.ar    1  UNL1        0.0376
      6 C          65.9048   92.3818   12.6648 C.ar    1  UNL1        0.0804
      7 S          62.7270   90.6133   11.0762 S.O2    1  UNL1        0.0737
      8 O          63.5505   91.1582    9.9471 O.2     1  UNL1       -0.1499
      9 O          61.9034   90.0685   12.2052 O.2     1  UNL1       -0.1499
     10 N          61.6330   90.2659   10.1105 N.pl3   1  UNL1       -0.2120
     11 H          61.0982   90.9803    9.6947 H       1  UNL1        0.1738
     12 C          61.3537   88.8300    9.7784 C.ar    1  UNL1        0.1003
     13 C          62.1439   87.7399   10.4397 C.ar    1  UNL1        0.0304
     14 C          61.8646   86.3040   10.1076 C.ar    1  UNL1        0.0600
     15 CL         62.6548   85.2139   10.7688 Cl      1  UNL1       -0.0822
     16 C          60.7952   85.9583    9.1142 C.ar    1  UNL1        0.0259
     17 C          60.0051   87.0484    8.4529 C.ar    1  UNL1        0.0936
     18 CL         58.9356   86.7026    7.4595 Cl      1  UNL1       -0.0790
     19 C          60.2843   88.4843    8.7850 C.ar    1  UNL1        0.1636
     20 O          59.4941   89.5744    8.1238 O.3     1  UNL1       -0.4693
     21 C          59.4671   89.6793    6.6277 C.3     1  UNL1        0.2526
     22 C          66.7951   92.8195   16.1587 C.3     1  UNL1        0.2525
     23 O          67.1030   92.0030   14.9387 O.3     1  UNL1       -0.4702
     24 N          66.8947   93.4555   12.3220 N.pl3   1  UNL1       -0.3316
     25 H          67.6805   93.6022   12.8967 H       1  UNL1        0.1469
     26 C          66.6873   94.3056   11.1037 C.3     1  UNL1        0.0719
     27 C          65.8808   95.5669   11.1977 C.3     1  UNL1        0.0368
     28 C          65.6733   96.4170    9.9794 C.3     1  UNL1        0.0738
     29 N          66.2725   96.0058    8.6671 N.3     1  UNL1       -0.2714
     30 C          66.0650   96.8559    7.4488 C.3     1  UNL1        0.0896
     31 C          67.0789   94.7446    8.5731 C.3     1  UNL1        0.0738
     32 C          67.2863   93.8945    9.7914 C.3     1  UNL1        0.0368
@<TRIPOS>BOND
     1    22    23    1
     2    23     1    1
     3     1     2   ar
     4     2     3   ar
     5     3     4   ar
     6     4     7    1
     7     7     8    2
     8     7     9    2
     9     7    10    1
    10    10    12    1
    11    12    13   ar
    12    13    14   ar
    13    14    15    1
    14    14    16   ar
    15    16    17   ar
    16    17    18    1
    17    17    19   ar
    18    19    20    1
    19    20    21    1
    20     4     5   ar
    21     5     6   ar
    22     6    24    1
    23    24    26    1
    24    26    27    1
    25    27    28    1
    26    28    29    1
    27    29    30    1
    28    29    31    1
    29    31    32    1
    30     6     1   ar
    31    32    26    1
    32    19    12   ar
    33    10    11    1
    34    24    25    1
@<TRIPOS>MOLECULE
*****
 32 34 0 0 0
SMALL
GASTEIGER

@<TRIPOS>ATOM
      1 C          60.8768   86.3908    8.2540 C.ar    1  UNL1        0.1518
      2 C          59.9647   87.5763    8.3663 C.ar    1  UNL1        0.0396
      3 C          60.2637   88.6614    9.3578 C.ar    1  UNL1        0.0234
      4 C          61.4748   88.5610   10.2371 C.ar    1  UNL1        0.1266
      5 C          62.3869   87.3755   10.1248 C.ar    1  UNL1        0.0376
      6 C          62.0879   86.2904    9.1333 C.ar    1  UNL1        0.0804
      7 S          61.7739   89.6461   11.2286 S.O2    1  UNL1        0.0737
      8 O          60.9220   90.5986   10.4431 O.2     1  UNL1       -0.1499
      9 O          62.6257   88.6935   12.0142 O.2     1  UNL1       -0.1499
     10 N          62.0729   90.7312   12.2202 N.pl3   1  UNL1       -0.2120
     11 H          61.3509   91.1007   12.7782 H       1  UNL1        0.1738
     12 C          63.4719   91.2533   12.3615 C.ar    1  UNL1        0.1003
     13 C          64.2018   91.7773   11.1603 C.ar    1  UNL1        0.0304
     14 C          65.6009   92.2995   11.3017 C.ar    1  UNL1        0.0600
     15 CL         66.3308   92.8235   10.1006 Cl      1  UNL1       -0.0822
     16 C          66.2701   92.2975   12.6441 C.ar    1  UNL1        0.0259
     17 C          65.5403   91.7735   13.8452 C.ar    1  UNL1        0.0936
     18 CL         66.2095   91.7716   15.1877 Cl      1  UNL1       -0.0790
     19 C          64.1412   91.2514   13.7039 C.ar    1  UNL1        0.1636
     20 O          63.4114   90.7273   14.9050 O.3     1  UNL1       -0.4693
     21 C          63.6484   89.3219   15.3725 C.3     1  UNL1        0.2526
     22 C          61.6556   84.8111    6.3440 C.3     1  UNL1        0.2525
     23 O          60.5777   85.3057    7.2625 O.3     1  UNL1       -0.4702
     24 N          63.0000   85.1048    9.0210 N.pl3   1  UNL1       -0.3316
     25 H          63.4743   84.9268    8.1769 H       1  UNL1        0.1469
     26 C          63.1894   84.1905   10.1949 C.3     1  UNL1        0.0719
     27 C          64.0859   82.9936   10.0764 C.3     1  UNL1        0.0368
     28 C          64.2753   82.0793   11.2504 C.3     1  UNL1        0.0738
     29 N          63.5683   82.3619   12.5428 N.3     1  UNL1       -0.2714
     30 C          63.7578   81.4475   13.7168 C.3     1  UNL1        0.0896
     31 C          62.6719   83.5587   12.6613 C.3     1  UNL1        0.0738
     32 C          62.4825   84.4730   11.4874 C.3     1  UNL1        0.0368
@<TRIPOS>BOND
     1    22    23    1
     2    23     1    1
     3     1     2   ar
     4     2     3   ar
     5     3     4   ar
     6     4     7    1
     7     7     8    2
     8     7     9    2
     9     7    10    1
    10    10    12    1
    11    12    13   ar
    12    13    14   ar
    13    14    15    1
    14    14    16   ar
    15    16    17   ar
    16    17    18    1
    17    17    19   ar
    18    19    20    1
    19    20    21    1
    20     4     5   ar
    21     5     6   ar
    22     6    24    1
    23    24    26    1
    24    26    27    1
    25    27    28    1
    26    28    29    1
    27    29    30    1
    28    29    31    1
    29    31    32    1
    30     6     1   ar
    31    32    26    1
    32    19    12   ar
    33    10    11    1
    34    24    25    1
@<TRIPOS>MOLECULE
*****
 32 34 0 0 0
SMALL
GASTEIGER

@<TRIPOS>ATOM
      1 C          60.6928   86.4930    8.1193 C.ar    1  UNL1        0.1518
      2 C          59.8338   87.7218    8.1646 C.ar    1  UNL1        0.0396
      3 C          60.2454   88.8940    9.0052 C.ar    1  UNL1        0.0234
      4 C          61.5160   88.8373    9.8004 C.ar    1  UNL1        0.1266
      5 C          62.3749   87.6085    9.7551 C.ar    1  UNL1        0.0376
      6 C          61.9633   86.4363    8.9145 C.ar    1  UNL1        0.0804
      7 S          61.9276   90.0095   10.6410 S.O2    1  UNL1        0.0737
      8 O          63.3092   89.9402   10.0610 O.2     1  UNL1       -0.1499
      9 O          60.5460   90.0788   11.2210 O.2     1  UNL1       -0.1499
     10 N          62.3392   91.1817   11.4816 N.pl3   1  UNL1       -0.2120
     11 H          61.9634   92.0734   11.3005 H       1  UNL1        0.1738
     12 C          63.3234   90.9952   12.5980 C.ar    1  UNL1        0.1003
     13 C          63.0462   89.9976   13.6834 C.ar    1  UNL1        0.0304
     14 C          64.0305   89.8112   14.7999 C.ar    1  UNL1        0.0600
     15 CL         63.7534   88.8136   15.8853 Cl      1  UNL1       -0.0822
     16 C          65.2919   90.6223   14.8310 C.ar    1  UNL1        0.0259
     17 C          65.5691   91.6199   13.7456 C.ar    1  UNL1        0.0936
     18 CL         66.8305   92.4310   13.7768 Cl      1  UNL1       -0.0790
     19 C          64.5849   91.8064   12.6292 C.ar    1  UNL1        0.1636
     20 O          64.8620   92.8039   11.5438 O.3     1  UNL1       -0.4693
     21 C          65.9033   92.5116   10.5045 C.3     1  UNL1        0.2526
     22 C          61.2653   84.6889    6.3396 C.3     1  UNL1        0.2525
     23 O          60.2811   85.3208    7.2787 O.3     1  UNL1       -0.4702
     24 N          62.8223   85.2074    8.8693 N.pl3   1  UNL1       -0.3316
     25 H          63.2179   84.9144    8.0166 H       1  UNL1        0.1469
     26 C          63.0786   84.4248   10.1230 C.3     1  UNL1        0.0719
     27 C          64.0403   83.2738   10.1053 C.3     1  UNL1        0.0368
     28 C          64.2965   82.4912   11.3591 C.3     1  UNL1        0.0738
     29 N          63.5911   82.8598   12.6306 N.3     1  UNL1       -0.2714
     30 C          63.8473   82.0773   13.8844 C.3     1  UNL1        0.0896
     31 C          62.6294   84.0108   12.6483 C.3     1  UNL1        0.0738
     32 C          62.3732   84.7933   11.3945 C.3     1  UNL1        0.0368
@<TRIPOS>BOND
     1    22    23    1
     2    23     1    1
     3     1     2   ar
     4     2     3   ar
     5     3     4   ar
     6     4     7    1
     7     7     8    2
     8     7     9    2
     9     7    10    1
    10    10    12    1
    11    12    13   ar
    12    13    14   ar
    13    14    15    1
    14    14    16   ar
    15    16    17   ar
    16    17    18    1
    17    17    19   ar
    18    19    20    1
    19    20    21    1
    20     4     5   ar
    21     5     6   ar
    22     6    24    1
    23    24    26    1
    24    26    27    1
    25    27    28    1
    26    28    29    1
    27    29    30    1
    28    29    31    1
    29    31    32    1
    30     6     1   ar
    31    32    26    1
    32    19    12   ar
    33    10    11    1
    34    24    25    1
@<TRIPOS>MOLECULE
*****
 32 34 0 0 0
SMALL
GASTEIGER

@<TRIPOS>ATOM
      1 C          60.1331   88.2077    8.5514 C.ar    1  UNL1        0.1518
      2 C          60.0683   86.7515    8.1978 C.ar    1  UNL1        0.0396
      3 C          60.9712   85.7716    8.8867 C.ar    1  UNL1        0.0234
      4 C          61.9389   86.2479    9.9291 C.ar    1  UNL1        0.1266
      5 C          62.0037   87.7042   10.2826 C.ar    1  UNL1        0.0376
      6 C          61.1008   88.6841    9.5938 C.ar    1  UNL1        0.0804
      7 S          62.8418   85.2680   10.6179 S.O2    1  UNL1        0.0737
      8 O          63.2547   84.7128    9.2870 O.2     1  UNL1       -0.1499
      9 O          62.4290   85.8232   11.9488 O.2     1  UNL1       -0.1499
     10 N          63.7447   84.2880   11.3068 N.pl3   1  UNL1       -0.2120
     11 H          64.6434   84.5665   11.5969 H       1  UNL1        0.1738
     12 C          63.2784   82.8839   11.5536 C.ar    1  UNL1        0.1003
     13 C          63.4061   81.8505   10.4740 C.ar    1  UNL1        0.0304
     14 C          62.9398   80.4463   10.7209 C.ar    1  UNL1        0.0600
     15 CL         63.0674   79.4129    9.6412 Cl      1  UNL1       -0.0822
     16 C          62.3459   80.0756   12.0474 C.ar    1  UNL1        0.0259
     17 C          62.2182   81.1091   13.1271 C.ar    1  UNL1        0.0936
     18 CL         61.6243   80.7383   14.4538 Cl      1  UNL1       -0.0790
     19 C          62.6845   82.5132   12.8803 C.ar    1  UNL1        0.1636
     20 O          62.5568   83.5466   13.9599 O.3     1  UNL1       -0.4693
     21 C          63.6764   83.7531   14.9367 C.3     1  UNL1        0.2526
     22 C          59.4101   89.4742    6.4012 C.3     1  UNL1        0.2525
     23 O          59.2302   89.1877    7.8625 O.3     1  UNL1       -0.4702
     24 N          61.1656   90.1404    9.9473 N.pl3   1  UNL1       -0.3316
     25 H          60.4447   90.7483    9.6643 H       1  UNL1        0.1469
     26 C          62.3288   90.6706   10.7322 C.3     1  UNL1        0.0719
     27 C          63.3693   91.5124   10.0549 C.3     1  UNL1        0.0368
     28 C          64.5325   92.0426   10.8397 C.3     1  UNL1        0.0738
     29 N          64.6551   91.7309   12.3019 N.3     1  UNL1       -0.2714
     30 C          65.8183   92.2610   13.0867 C.3     1  UNL1        0.0896
     31 C          63.6147   90.8891   12.9791 C.3     1  UNL1        0.0738
     32 C          62.4515   90.3589   12.1943 C.3     1  UNL1        0.0368
@<TRIPOS>BOND
     1    22    23    1
     2    23     1    1
     3     1     2   ar
     4     2     3   ar
     5     3     4   ar
     6     4     7    1
     7     7     8    2
     8     7     9    2
     9     7    10    1
    10    10    12    1
    11    12    13   ar
    12    13    14   ar
    13    14    15    1
    14    14    16   ar
    15    16    17   ar
    16    17    18    1
    17    17    19   ar
    18    19    20    1
    19    20    21    1
    20     4     5   ar
    21     5     6   ar
    22     6    24    1
    23    24    26    1
    24    26    27    1
    25    27    28    1
    26    28    29    1
    27    29    30    1
    28    29    31    1
    29    31    32    1
    30     6     1   ar
    31    32    26    1
    32    19    12   ar
    33    10    11    1
    34    24    25    1
@<TRIPOS>MOLECULE
*****
 32 34 0 0 0
SMALL
GASTEIGER

@<TRIPOS>ATOM
      1 C          65.4224   91.8681   14.0230 C.ar    1  UNL1        0.1518
      2 C          65.5568   92.4591   12.6509 C.ar    1  UNL1        0.0396
      3 C          64.5956   92.0672   11.5681 C.ar    1  UNL1        0.0234
      4 C          63.5001   91.0843   11.8573 C.ar    1  UNL1        0.1266
      5 C          63.3657   90.4933   13.2293 C.ar    1  UNL1        0.0376
      6 C          64.3269   90.8852   14.3122 C.ar    1  UNL1        0.0804
      7 S          62.5389   90.6925   10.7744 S.O2    1  UNL1        0.0737
      8 O          63.4760   91.2461    9.7423 O.2     1  UNL1       -0.1499
      9 O          61.6019   90.1388   11.8065 O.2     1  UNL1       -0.1499
     10 N          61.5778   90.3006    9.6915 N.pl3   1  UNL1       -0.2120
     11 H          61.1340   90.9946    9.1524 H       1  UNL1        0.1738
     12 C          61.2928   88.8513    9.4300 C.ar    1  UNL1        0.1003
     13 C          62.1377   87.7927   10.0744 C.ar    1  UNL1        0.0304
     14 C          61.8528   86.3433    9.8129 C.ar    1  UNL1        0.0600
     15 CL         62.6977   85.2846   10.4573 Cl      1  UNL1       -0.0822
     16 C          60.7229   85.9528    8.9069 C.ar    1  UNL1        0.0259
     17 C          59.8780   87.0115    8.2624 C.ar    1  UNL1        0.0936
     18 CL         58.7481   86.6208    7.3564 Cl      1  UNL1       -0.0790
     19 C          60.1629   88.4607    8.5240 C.ar    1  UNL1        0.1636
     20 O          59.3180   89.5194    7.8795 O.3     1  UNL1       -0.4693
     21 C          59.3981   89.7445    6.3987 C.3     1  UNL1        0.2526
     22 C          67.2322   93.4866   14.9476 C.3     1  UNL1        0.2525
     23 O          66.3836   92.2600   15.1059 O.3     1  UNL1       -0.4702
     24 N          64.1924   90.2941   15.6843 N.pl3   1  UNL1       -0.3316
     25 H          64.3211   90.8607   16.4791 H       1  UNL1        0.1469
     26 C          63.8621   88.8399   15.8454 C.3     1  UNL1        0.0719
     27 C          64.3718   87.8402   14.8498 C.3     1  UNL1        0.0368
     28 C          64.0414   86.3859   15.0109 C.3     1  UNL1        0.0738
     29 N          63.2013   85.9313   16.1675 N.3     1  UNL1       -0.2714
     30 C          62.8709   84.4770   16.3286 C.3     1  UNL1        0.0896
     31 C          62.6917   86.9309   17.1630 C.3     1  UNL1        0.0738
     32 C          63.0221   88.3852   17.0019 C.3     1  UNL1        0.0368
@<TRIPOS>BOND
     1    22    23    1
     2    23     1    1
     3     1     2   ar
     4     2     3   ar
     5     3     4   ar
     6     4     7    1
     7     7     8    2
     8     7     9    2
     9     7    10    1
    10    10    12    1
    11    12    13   ar
    12    13    14   ar
    13    14    15    1
    14    14    16   ar
    15    16    17   ar
    16    17    18    1
    17    17    19   ar
    18    19    20    1
    19    20    21    1
    20     4     5   ar
    21     5     6   ar
    22     6    24    1
    23    24    26    1
    24    26    27    1
    25    27    28    1
    26    28    29    1
    27    29    30    1
    28    29    31    1
    29    31    32    1
    30     6     1   ar
    31    32    26    1
    32    19    12   ar
    33    10    11    1
    34    24    25    1
@<TRIPOS>MOLECULE
*****
 32 34 0 0 0
SMALL
GASTEIGER

@<TRIPOS>ATOM
      1 C          59.9858   88.4555    8.2380 C.ar    1  UNL1        0.1518
      2 C          59.8932   87.0296    7.7818 C.ar    1  UNL1        0.0396
      3 C          60.7494   85.9792    8.4249 C.ar    1  UNL1        0.0234
      4 C          61.6981   86.3547    9.5244 C.ar    1  UNL1        0.1266
      5 C          61.7908   87.7806    9.9806 C.ar    1  UNL1        0.0376
      6 C          60.9346   88.8310    9.3374 C.ar    1  UNL1        0.0804
      7 S          62.5543   85.3043   10.1675 S.O2    1  UNL1        0.0737
      8 O          61.8330   85.5116   11.4663 O.2     1  UNL1       -0.1499
      9 O          63.2757   85.0971    8.8688 O.2     1  UNL1       -0.1499
     10 N          63.4105   84.2539   10.8107 N.pl3   1  UNL1       -0.2120
     11 H          64.0989   83.7887   10.2825 H       1  UNL1        0.1738
     12 C          63.2178   83.9124   12.2585 C.ar    1  UNL1        0.1003
     13 C          63.6800   84.8643   13.3216 C.ar    1  UNL1        0.0304
     14 C          63.4874   84.5226   14.7695 C.ar    1  UNL1        0.0600
     15 CL         63.9496   85.4746   15.8326 Cl      1  UNL1       -0.0822
     16 C          62.8325   83.2292   15.1541 C.ar    1  UNL1        0.0259
     17 C          62.3703   82.2773   14.0910 C.ar    1  UNL1        0.0936
     18 CL         61.7154   80.9837   14.4758 Cl      1  UNL1       -0.0790
     19 C          62.5629   82.6188   12.6432 C.ar    1  UNL1        0.1636
     20 O          62.1007   81.6669   11.5801 O.3     1  UNL1       -0.4693
     21 C          63.0877   80.7646   10.9007 C.3     1  UNL1        0.2526
     22 C          59.3179   89.8428    6.1454 C.3     1  UNL1        0.2525
     23 O          59.1296   89.5059    7.5949 O.3     1  UNL1       -0.4702
     24 N          61.0272   90.2569    9.7937 N.pl3   1  UNL1       -0.3316
     25 H          60.3319   90.9033    9.5331 H       1  UNL1        0.1469
     26 C          62.1793   90.6980   10.6471 C.3     1  UNL1        0.0719
     27 C          63.3115   91.4706   10.0376 C.3     1  UNL1        0.0368
     28 C          64.4636   91.9116   10.8910 C.3     1  UNL1        0.0738
     29 N          64.4835   91.5800   12.3538 N.3     1  UNL1       -0.2714
     30 C          65.6356   92.0210   13.2072 C.3     1  UNL1        0.0896
     31 C          63.3514   90.8074   12.9632 C.3     1  UNL1        0.0738
     32 C          62.1993   90.3664   12.1098 C.3     1  UNL1        0.0368
@<TRIPOS>BOND
     1    22    23    1
     2    23     1    1
     3     1     2   ar
     4     2     3   ar
     5     3     4   ar
     6     4     7    1
     7     7     8    2
     8     7     9    2
     9     7    10    1
    10    10    12    1
    11    12    13   ar
    12    13    14   ar
    13    14    15    1
    14    14    16   ar
    15    16    17   ar
    16    17    18    1
    17    17    19   ar
    18    19    20    1
    19    20    21    1
    20     4     5   ar
    21     5     6   ar
    22     6    24    1
    23    24    26    1
    24    26    27    1
    25    27    28    1
    26    28    29    1
    27    29    30    1
    28    29    31    1
    29    31    32    1
    30     6     1   ar
    31    32    26    1
    32    19    12   ar
    33    10    11    1
    34    24    25    1
@<TRIPOS>MOLECULE
*****
 32 34 0 0 0
SMALL
GASTEIGER

@<TRIPOS>ATOM
      1 C          60.5385   86.8382    8.1187 C.ar    1  UNL1        0.1518
      2 C          61.6079   86.4443    9.0940 C.ar    1  UNL1        0.0396
      3 C          62.0261   87.3977   10.1738 C.ar    1  UNL1        0.0234
      4 C          61.3751   88.7450   10.2783 C.ar    1  UNL1        0.1266
      5 C          60.3057   89.1388    9.3030 C.ar    1  UNL1        0.0376
      6 C          59.8874   88.1854    8.2232 C.ar    1  UNL1        0.0804
      7 S          61.7934   89.6984   11.3582 S.O2    1  UNL1        0.0737
      8 O          60.9167   90.7591   10.7612 O.2     1  UNL1       -0.1499
      9 O          62.6700   88.6377   11.9552 O.2     1  UNL1       -0.1499
     10 N          62.2116   90.6518   12.4380 N.pl3   1  UNL1       -0.2120
     11 H          61.5688   90.9205   13.1336 H       1  UNL1        0.1738
     12 C          63.6093   91.1959   12.4581 C.ar    1  UNL1        0.1003
     13 C          64.1828   91.8356   11.2285 C.ar    1  UNL1        0.0304
     14 C          65.5806   92.3797   11.2486 C.ar    1  UNL1        0.0600
     15 CL         66.1541   93.0195   10.0191 Cl      1  UNL1       -0.0822
     16 C          66.4048   92.2840   12.4982 C.ar    1  UNL1        0.0259
     17 C          65.8312   91.6442   13.7278 C.ar    1  UNL1        0.0936
     18 CL         66.6555   91.5485   14.9774 Cl      1  UNL1       -0.0790
     19 C          64.4336   91.1002   13.7077 C.ar    1  UNL1        0.1636
     20 O          63.8600   90.4604   14.9373 O.3     1  UNL1       -0.4693
     21 C          64.0215   88.9860   15.1603 C.3     1  UNL1        0.2526
     22 C          61.0750   84.8340    6.5549 C.3     1  UNL1        0.2525
     23 O          60.1202   85.8847    7.0389 O.3     1  UNL1       -0.4702
     24 N          58.8180   88.5793    7.2478 N.pl3   1  UNL1       -0.3316
     25 H          57.9570   88.1019    7.2420 H       1  UNL1        0.1469
     26 C          59.0604   89.7006    6.2814 C.3     1  UNL1        0.0719
     27 C          57.9111   90.5318    5.7934 C.3     1  UNL1        0.0368
     28 C          58.1535   91.6531    4.8270 C.3     1  UNL1        0.0738
     29 N          59.5453   91.9432    4.3486 N.3     1  UNL1       -0.2714
     30 C          59.7878   93.0645    3.3822 C.3     1  UNL1        0.0896
     31 C          60.6946   91.1120    4.8366 C.3     1  UNL1        0.0738
     32 C          60.4522   89.9907    5.8030 C.3     1  UNL1        0.0368
@<TRIPOS>BOND
     1    22    23    1
     2    23     1    1
     3     1     2   ar
     4     2     3   ar
     5     3     4   ar
     6     4     7    1
     7     7     8    2
     8     7     9    2
     9     7    10    1
    10    10    12    1
    11    12    13   ar
    12    13    14   ar
    13    14    15    1
    14    14    16   ar
    15    16    17   ar
    16    17    18    1
    17    17    19   ar
    18    19    20    1
    19    20    21    1
    20     4     5   ar
    21     5     6   ar
    22     6    24    1
    23    24    26    1
    24    26    27    1
    25    27    28    1
    26    28    29    1
    27    29    30    1
    28    29    31    1
    29    31    32    1
    30     6     1   ar
    31    32    26    1
    32    19    12   ar
    33    10    11    1
    34    24    25    1
@<TRIPOS>MOLECULE
*****
 32 34 0 0 0
SMALL
GASTEIGER

@<TRIPOS>ATOM
      1 C          60.0108   88.3038    8.2535 C.ar    1  UNL1        0.1518
      2 C          59.9760   86.8894    7.7553 C.ar    1  UNL1        0.0396
      3 C          60.8325   85.8439    8.4058 C.ar    1  UNL1        0.0234
      4 C          61.7239   86.2127    9.5544 C.ar    1  UNL1        0.1266
      5 C          61.7587   87.6271   10.0525 C.ar    1  UNL1        0.0376
      6 C          60.9022   88.6727    9.4021 C.ar    1  UNL1        0.0804
      7 S          62.5805   85.1671   10.2048 S.O2    1  UNL1        0.0737
      8 O          63.3171   84.9672    8.9135 O.2     1  UNL1       -0.1499
      9 O          61.8440   85.3671   11.4961 O.2     1  UNL1       -0.1499
     10 N          63.4371   84.1216   10.8553 N.pl3   1  UNL1       -0.2120
     11 H          64.2308   83.7745   10.3874 H       1  UNL1        0.1738
     12 C          63.0845   83.6048   12.2185 C.ar    1  UNL1        0.1003
     13 C          62.2490   82.3669   12.3584 C.ar    1  UNL1        0.0304
     14 C          61.8963   81.8502   13.7218 C.ar    1  UNL1        0.0600
     15 CL         61.0608   80.6123   13.8616 Cl      1  UNL1       -0.0822
     16 C          62.3793   82.5713   14.9452 C.ar    1  UNL1        0.0259
     17 C          63.2148   83.8091   14.8053 C.ar    1  UNL1        0.0936
     18 CL         63.6977   84.5302   16.0288 Cl      1  UNL1       -0.0790
     19 C          63.5674   84.3259   13.4420 C.ar    1  UNL1        0.1636
     20 O          64.4029   85.5638   13.3022 O.3     1  UNL1       -0.4693
     21 C          63.8645   86.8875   13.7579 C.3     1  UNL1        0.2526
     22 C          59.3808   89.7174    6.1667 C.3     1  UNL1        0.2525
     23 O          59.1542   89.3494    7.6030 O.3     1  UNL1       -0.4702
     24 N          60.9370   90.0871    9.9003 N.pl3   1  UNL1       -0.3316
     25 H          60.1887   90.6964    9.7051 H       1  UNL1        0.1469
     26 C          62.1120   90.5733   10.6959 C.3     1  UNL1        0.0719
     27 C          63.1796   91.3922   10.0328 C.3     1  UNL1        0.0368
     28 C          64.3546   91.8784   10.8284 C.3     1  UNL1        0.0738
     29 N          64.4620   91.5456   12.2872 N.3     1  UNL1       -0.2714
     30 C          65.6370   92.0318   13.0828 C.3     1  UNL1        0.0896
     31 C          63.3944   90.7267   12.9502 C.3     1  UNL1        0.0738
     32 C          62.2194   90.2406   12.1546 C.3     1  UNL1        0.0368
@<TRIPOS>BOND
     1    22    23    1
     2    23     1    1
     3     1     2   ar
     4     2     3   ar
     5     3     4   ar
     6     4     7    1
     7     7     8    2
     8     7     9    2
     9     7    10    1
    10    10    12    1
    11    12    13   ar
    12    13    14   ar
    13    14    15    1
    14    14    16   ar
    15    16    17   ar
    16    17    18    1
    17    17    19   ar
    18    19    20    1
    19    20    21    1
    20     4     5   ar
    21     5     6   ar
    22     6    24    1
    23    24    26    1
    24    26    27    1
    25    27    28    1
    26    28    29    1
    27    29    30    1
    28    29    31    1
    29    31    32    1
    30     6     1   ar
    31    32    26    1
    32    19    12   ar
    33    10    11    1
    34    24    25    1
@<TRIPOS>MOLECULE
*****
 32 34 0 0 0
SMALL
GASTEIGER

@<TRIPOS>ATOM
      1 C          63.9949   87.9067   14.1423 C.ar    1  UNL1        0.1518
      2 C          64.7271   88.9995   14.8631 C.ar    1  UNL1        0.0396
      3 C          64.8711   90.3510   14.2286 C.ar    1  UNL1        0.0234
      4 C          64.2829   90.6097   12.8732 C.ar    1  UNL1        0.1266
      5 C          63.5506   89.5170   12.1525 C.ar    1  UNL1        0.0376
      6 C          63.4066   88.1654   12.7870 C.ar    1  UNL1        0.0804
      7 S          64.4269   91.9613   12.2387 S.O2    1  UNL1        0.0737
      8 O          65.1551   92.4542   13.4539 O.2     1  UNL1       -0.1499
      9 O          63.6987   91.4683   11.0235 O.2     1  UNL1       -0.1499
     10 N          64.5709   93.3128   11.6041 N.pl3   1  UNL1       -0.2120
     11 H          63.8810   94.0002   11.7480 H       1  UNL1        0.1738
     12 C          65.7661   93.6170   10.7504 C.ar    1  UNL1        0.1003
     13 C          66.6991   92.5143   10.3459 C.ar    1  UNL1        0.0304
     14 C          67.8943   92.8186    9.4921 C.ar    1  UNL1        0.0600
     15 CL         68.8273   91.7159    9.0875 Cl      1  UNL1       -0.0822
     16 C          68.1566   94.2255    9.0429 C.ar    1  UNL1        0.0259
     17 C          67.2236   95.3282    9.4475 C.ar    1  UNL1        0.0936
     18 CL         67.4859   96.7351    8.9983 Cl      1  UNL1       -0.0790
     19 C          66.0284   95.0240   10.3012 C.ar    1  UNL1        0.1636
     20 O          65.0955   96.1267   10.7058 O.3     1  UNL1       -0.4693
     21 C          64.2947   96.8513    9.6648 C.3     1  UNL1        0.2526
     22 C          65.0298   85.6306   14.8481 C.3     1  UNL1        0.2525
     23 O          63.8508   86.5552   14.7769 O.3     1  UNL1       -0.4702
     24 N          62.6743   87.0726   12.0661 N.pl3   1  UNL1       -0.3316
     25 H          62.7696   86.1383   12.3615 H       1  UNL1        0.1469
     26 C          61.7970   87.4034   10.8953 C.3     1  UNL1        0.0719
     27 C          61.9448   86.6453    9.6094 C.3     1  UNL1        0.0368
     28 C          61.0675   86.9760    8.4386 C.3     1  UNL1        0.0738
     29 N          60.0422   88.0650    8.5537 N.3     1  UNL1       -0.2714
     30 C          59.1649   88.3958    7.3829 C.3     1  UNL1        0.0896
     31 C          59.8944   88.8231    9.8395 C.3     1  UNL1        0.0738
     32 C          60.7718   88.4923   11.0103 C.3     1  UNL1        0.0368
@<TRIPOS>BOND
     1    22    23    1
     2    23     1    1
     3     1     2   ar
     4     2     3   ar
     5     3     4   ar
     6     4     7    1
     7     7     8    2
     8     7     9    2
     9     7    10    1
    10    10    12    1
    11    12    13   ar
    12    13    14   ar
    13    14    15    1
    14    14    16   ar
    15    16    17   ar
    16    17    18    1
    17    17    19   ar
    18    19    20    1
    19    20    21    1
    20     4     5   ar
    21     5     6   ar
    22     6    24    1
    23    24    26    1
    24    26    27    1
    25    27    28    1
    26    28    29    1
    27    29    30    1
    28    29    31    1
    29    31    32    1
    30     6     1   ar
    31    32    26    1
    32    19    12   ar
    33    10    11    1
    34    24    25    1
