@<TRIPOS>MOLECULE
*****
 24 27 0 0 0
SMALL
GASTEIGER

@<TRIPOS>ATOM
      1 C          62.7112   86.1689   11.6323 C.3     1  UNL1        0.0991
      2 C          63.3616   81.7164   11.5816 C.ar    1  UNL1       -0.0000
      3 C          64.1599   82.6014   10.6709 C.ar    1  UNL1       -0.0003
      4 C          63.9431   84.0856   10.6878 C.ar    1  UNL1       -0.0029
      5 C          62.9280   84.6847   11.6154 C.ar    1  UNL1       -0.0061
      6 C          62.1297   83.7997   12.5262 C.ar    1  UNL1       -0.0029
      7 C          62.3466   82.3156   12.5093 C.ar    1  UNL1       -0.0003
      8 N          63.3282   87.0047   12.7143 N.3     1  UNL1       -0.2690
      9 C          63.4709   88.4979   12.7018 C.3     1  UNL1        0.0724
     10 C          64.1418   88.9102   13.9785 C.3     1  UNL1        0.0188
     11 C          64.4137   87.6718   14.7801 C.3     1  UNL1        0.0188
     12 C          63.9109   86.4942   13.9988 C.3     1  UNL1        0.0724
     13 C          61.8774   86.8172   10.5673 C.3     1  UNL1        0.0991
     14 C          61.7382   86.1657    9.2234 C.ar    1  UNL1       -0.0061
     15 C          60.3974   86.1080    8.5531 C.ar    1  UNL1       -0.0029
     16 C          60.2582   85.4565    7.2092 C.ar    1  UNL1       -0.0003
     17 C          61.4598   84.8627    6.5355 C.ar    1  UNL1       -0.0000
     18 C          62.8005   84.9205    7.2057 C.ar    1  UNL1       -0.0003
     19 C          62.9396   85.5720    8.5497 C.ar    1  UNL1       -0.0029
     20 N          61.1827   88.1171   10.8462 N.3     1  UNL1       -0.2690
     21 C          61.5414   89.4515   10.2625 C.3     1  UNL1        0.0724
     22 C          60.5877   90.4699   10.8133 C.3     1  UNL1        0.0188
     23 C          59.6395   89.7649   11.7374 C.3     1  UNL1        0.0188
     24 C          60.0072   88.3108   11.7577 C.3     1  UNL1        0.0724
@<TRIPOS>BOND
     1     2     3   ar
     2     3     4   ar
     3     4     5   ar
     4     5     1    1
     5     1    13    1
     6    13    14    1
     7    14    15   ar
     8    15    16   ar
     9    16    17   ar
    10    17    18   ar
    11    18    19   ar
    12    13    20    1
    13    20    21    1
    14    21    22    1
    15    22    23    1
    16    23    24    1
    17     1     8    1
    18     8     9    1
    19     9    10    1
    20    10    11    1
    21    11    12    1
    22     5     6   ar
    23     6     7   ar
    24     7     2   ar
    25    19    14   ar
    26    24    20    1
    27    12     8    1
@<TRIPOS>MOLECULE
*****
 24 27 0 0 0
SMALL
GASTEIGER

@<TRIPOS>ATOM
      1 C          61.8813   86.8063   10.5659 C.3     1  UNL1        0.0991
      2 C          61.4234   84.8558    6.5365 C.ar    1  UNL1       -0.0000
      3 C          60.2417   85.5043    7.1944 C.ar    1  UNL1       -0.0003
      4 C          60.3943   86.1545    8.5375 C.ar    1  UNL1       -0.0029
      5 C          61.7286   86.1561    9.2227 C.ar    1  UNL1       -0.0061
      6 C          62.9103   85.5076    8.5648 C.ar    1  UNL1       -0.0029
      7 C          62.7577   84.8574    7.2216 C.ar    1  UNL1       -0.0003
      8 N          61.1907   88.1066   10.8525 N.3     1  UNL1       -0.2690
      9 C          60.0379   88.3045   11.7917 C.3     1  UNL1        0.0724
     10 C          59.6663   89.7576   11.7700 C.3     1  UNL1        0.0188
     11 C          60.5894   90.4579   10.8172 C.3     1  UNL1        0.0188
     12 C          61.5315   89.4375   10.2502 C.3     1  UNL1        0.0724
     13 C          62.7245   86.1561   11.6224 C.3     1  UNL1        0.0991
     14 C          62.9560   84.6745   11.5906 C.ar    1  UNL1       -0.0061
     15 C          63.9924   84.0968   10.6727 C.ar    1  UNL1       -0.0029
     16 C          64.2239   82.6151   10.6410 C.ar    1  UNL1       -0.0003
     17 C          63.4191   81.7111   11.5270 C.ar    1  UNL1       -0.0000
     18 C          62.3828   82.2887   12.4448 C.ar    1  UNL1       -0.0003
     19 C          62.1512   83.7704   12.4766 C.ar    1  UNL1       -0.0029
     20 N          63.3362   86.9877   12.7107 N.3     1  UNL1       -0.2690
     21 C          63.8834   86.4752   14.0099 C.3     1  UNL1        0.0724
     22 C          64.3934   87.6484   14.7930 C.3     1  UNL1        0.0188
     23 C          64.1615   88.8861   13.9778 C.3     1  UNL1        0.0188
     24 C          63.5080   88.4777   12.6909 C.3     1  UNL1        0.0724
@<TRIPOS>BOND
     1     2     3   ar
     2     3     4   ar
     3     4     5   ar
     4     5     1    1
     5     1    13    1
     6    13    14    1
     7    14    15   ar
     8    15    16   ar
     9    16    17   ar
    10    17    18   ar
    11    18    19   ar
    12    13    20    1
    13    20    21    1
    14    21    22    1
    15    22    23    1
    16    23    24    1
    17     1     8    1
    18     8     9    1
    19     9    10    1
    20    10    11    1
    21    11    12    1
    22     5     6   ar
    23     6     7   ar
    24     7     2   ar
    25    19    14   ar
    26    24    20    1
    27    12     8    1
@<TRIPOS>MOLECULE
*****
 24 27 0 0 0
SMALL
GASTEIGER

@<TRIPOS>ATOM
      1 C          65.0816   91.8182   12.4116 C.3     1  UNL1        0.0991
      2 C          67.5112   94.6083    9.8498 C.ar    1  UNL1       -0.0000
      3 C          66.5688   95.1623   10.8769 C.ar    1  UNL1       -0.0003
      4 C          65.7590   94.2323   11.7308 C.ar    1  UNL1       -0.0029
      5 C          65.8915   92.7482   11.5576 C.ar    1  UNL1       -0.0061
      6 C          66.8338   92.1942   10.5305 C.ar    1  UNL1       -0.0029
      7 C          67.6437   93.1242    9.6766 C.ar    1  UNL1       -0.0003
      8 N          63.8217   91.2094   11.8711 N.3     1  UNL1       -0.2690
      9 C          62.7334   90.5698   12.6815 C.3     1  UNL1        0.0724
     10 C          61.6680   90.0984   11.7367 C.3     1  UNL1        0.0188
     11 C          62.0978   90.4467   10.3424 C.3     1  UNL1        0.0188
     12 C          63.4289   91.1334   10.4255 C.3     1  UNL1        0.0724
     13 C          65.5316   91.4969   13.8059 C.3     1  UNL1        0.0991
     14 C          64.7592   90.5146   14.6357 C.ar    1  UNL1       -0.0061
     15 C          63.9458   90.9937   15.8014 C.ar    1  UNL1       -0.0029
     16 C          63.1734   90.0114   16.6312 C.ar    1  UNL1       -0.0003
     17 C          63.2145   88.5500   16.2952 C.ar    1  UNL1       -0.0000
     18 C          64.0280   88.0710   15.1296 C.ar    1  UNL1       -0.0003
     19 C          64.8003   89.0533   14.2998 C.ar    1  UNL1       -0.0029
     20 N          66.7540   92.1580   14.3706 N.3     1  UNL1       -0.2690
     21 C          68.1757   91.8081   14.0446 C.3     1  UNL1        0.0724
     22 C          69.0697   92.7189   14.8329 C.3     1  UNL1        0.0188
     23 C          68.2004   93.6317   15.6460 C.3     1  UNL1        0.0188
     24 C          66.7693   93.2851   15.3603 C.3     1  UNL1        0.0724
@<TRIPOS>BOND
     1     2     3   ar
     2     3     4   ar
     3     4     5   ar
     4     5     1    1
     5     1    13    1
     6    13    14    1
     7    14    15   ar
     8    15    16   ar
     9    16    17   ar
    10    17    18   ar
    11    18    19   ar
    12    13    20    1
    13    20    21    1
    14    21    22    1
    15    22    23    1
    16    23    24    1
    17     1     8    1
    18     8     9    1
    19     9    10    1
    20    10    11    1
    21    11    12    1
    22     5     6   ar
    23     6     7   ar
    24     7     2   ar
    25    19    14   ar
    26    24    20    1
    27    12     8    1
@<TRIPOS>MOLECULE
*****
 24 27 0 0 0
SMALL
GASTEIGER

@<TRIPOS>ATOM
      1 C          65.5396   91.5098   13.8016 C.3     1  UNL1        0.0991
      2 C          63.2309   88.5468   16.2796 C.ar    1  UNL1       -0.0000
      3 C          63.1877   90.0064   16.6226 C.ar    1  UNL1       -0.0003
      4 C          63.9573   90.9940   15.7966 C.ar    1  UNL1       -0.0029
      5 C          64.7700   90.5221   14.6276 C.ar    1  UNL1       -0.0061
      6 C          64.8132   89.0625   14.2845 C.ar    1  UNL1       -0.0029
      7 C          64.0436   88.0749   15.1105 C.ar    1  UNL1       -0.0003
      8 N          66.7561   92.1773   14.3711 N.3     1  UNL1       -0.2690
      9 C          66.7616   93.2961   15.3704 C.3     1  UNL1        0.0724
     10 C          68.1896   93.6535   15.6583 C.3     1  UNL1        0.0188
     11 C          69.0669   92.7557   14.8371 C.3     1  UNL1        0.0188
     12 C          68.1809   91.8433   14.0415 C.3     1  UNL1        0.0724
     13 C          65.0927   91.8299   12.4060 C.3     1  UNL1        0.0991
     14 C          65.9081   92.7538   11.5507 C.ar    1  UNL1       -0.0061
     15 C          66.8712   92.1924   10.5471 C.ar    1  UNL1       -0.0029
     16 C          67.6866   93.1163    9.6918 C.ar    1  UNL1       -0.0003
     17 C          67.5388   94.6016    9.8401 C.ar    1  UNL1       -0.0000
     18 C          66.5757   95.1630   10.8436 C.ar    1  UNL1       -0.0003
     19 C          65.7603   94.2391   11.6989 C.ar    1  UNL1       -0.0029
     20 N          63.8303   91.2262   11.8656 N.3     1  UNL1       -0.2690
     21 C          63.4428   91.1404   10.4191 C.3     1  UNL1        0.0724
     22 C          62.1068   90.4634   10.3365 C.3     1  UNL1        0.0188
     23 C          61.6685   90.1308   11.7320 C.3     1  UNL1        0.0188
     24 C          62.7337   90.6023   12.6770 C.3     1  UNL1        0.0724
@<TRIPOS>BOND
     1     2     3   ar
     2     3     4   ar
     3     4     5   ar
     4     5     1    1
     5     1    13    1
     6    13    14    1
     7    14    15   ar
     8    15    16   ar
     9    16    17   ar
    10    17    18   ar
    11    18    19   ar
    12    13    20    1
    13    20    21    1
    14    21    22    1
    15    22    23    1
    16    23    24    1
    17     1     8    1
    18     8     9    1
    19     9    10    1
    20    10    11    1
    21    11    12    1
    22     5     6   ar
    23     6     7   ar
    24     7     2   ar
    25    19    14   ar
    26    24    20    1
    27    12     8    1
@<TRIPOS>MOLECULE
*****
 24 27 0 0 0
SMALL
GASTEIGER

@<TRIPOS>ATOM
      1 C          62.7660   85.9079   11.5705 C.3     1  UNL1        0.0991
      2 C          63.2033   81.4300   11.4831 C.ar    1  UNL1       -0.0000
      3 C          62.3253   82.0779   12.5123 C.ar    1  UNL1       -0.0003
      4 C          62.1795   83.5706   12.5415 C.ar    1  UNL1       -0.0029
      5 C          62.9118   84.4153   11.5414 C.ar    1  UNL1       -0.0061
      6 C          63.7897   83.7674   10.5122 C.ar    1  UNL1       -0.0029
      7 C          63.9355   82.2748   10.4830 C.ar    1  UNL1       -0.0003
      8 N          63.3637   86.6980   12.6968 N.3     1  UNL1       -0.2690
      9 C          63.4857   88.1918   12.7584 C.3     1  UNL1        0.0724
     10 C          64.1417   88.5501   14.0589 C.3     1  UNL1        0.0188
     11 C          64.4252   87.2777   14.8011 C.3     1  UNL1        0.0188
     12 C          63.9443   86.1331   13.9592 C.3     1  UNL1        0.0724
     13 C          62.0226   86.6104   10.4734 C.3     1  UNL1        0.0991
     14 C          61.3635   87.9312   10.7403 C.ar    1  UNL1       -0.0061
     15 C          60.1150   87.9924   11.5696 C.ar    1  UNL1       -0.0029
     16 C          59.4560   89.3131   11.8365 C.ar    1  UNL1       -0.0003
     17 C          60.0454   90.5727   11.2741 C.ar    1  UNL1       -0.0000
     18 C          61.2938   90.5115   10.4449 C.ar    1  UNL1       -0.0003
     19 C          61.9529   89.1907   10.1780 C.ar    1  UNL1       -0.0029
     20 N          61.9382   85.9922    9.1093 N.3     1  UNL1       -0.2690
     21 C          60.6912   85.8250    8.2927 C.3     1  UNL1        0.0724
     22 C          61.0683   85.1621    7.0010 C.3     1  UNL1        0.0188
     23 C          62.5485   84.9197    7.0193 C.3     1  UNL1        0.0188
     24 C          63.0861   85.4327    8.3223 C.3     1  UNL1        0.0724
@<TRIPOS>BOND
     1     2     3   ar
     2     3     4   ar
     3     4     5   ar
     4     5     1    1
     5     1    13    1
     6    13    14    1
     7    14    15   ar
     8    15    16   ar
     9    16    17   ar
    10    17    18   ar
    11    18    19   ar
    12    13    20    1
    13    20    21    1
    14    21    22    1
    15    22    23    1
    16    23    24    1
    17     1     8    1
    18     8     9    1
    19     9    10    1
    20    10    11    1
    21    11    12    1
    22     5     6   ar
    23     6     7   ar
    24     7     2   ar
    25    19    14   ar
    26    24    20    1
    27    12     8    1
@<TRIPOS>MOLECULE
*****
 24 27 0 0 0
SMALL
GASTEIGER

@<TRIPOS>ATOM
      1 C          65.0070   91.7923   12.3652 C.3     1  UNL1        0.0991
      2 C          67.3581   94.7548    9.9268 C.ar    1  UNL1       -0.0000
      3 C          66.4896   95.2317   11.0530 C.ar    1  UNL1       -0.0003
      4 C          65.7059   94.2442   11.8658 C.ar    1  UNL1       -0.0029
      5 C          65.7907   92.7798   11.5524 C.ar    1  UNL1       -0.0061
      6 C          66.6591   92.3029   10.4262 C.ar    1  UNL1       -0.0029
      7 C          67.4428   93.2904    9.6135 C.ar    1  UNL1       -0.0003
      8 N          63.7652   91.1713   11.7975 N.3     1  UNL1       -0.2690
      9 C          62.5791   90.6953   12.5829 C.3     1  UNL1        0.0724
     10 C          61.5723   90.1470   11.6155 C.3     1  UNL1        0.0188
     11 C          62.1361   90.2840   10.2323 C.3     1  UNL1        0.0188
     12 C          63.4914   90.9171   10.3448 C.3     1  UNL1        0.0724
     13 C          65.4650   91.4258   13.7457 C.3     1  UNL1        0.0991
     14 C          66.7225   92.0248   14.3024 C.ar    1  UNL1       -0.0061
     15 C          66.6540   92.9542   15.4779 C.ar    1  UNL1       -0.0029
     16 C          67.9114   93.5532   16.0347 C.ar    1  UNL1       -0.0003
     17 C          69.2374   93.2229   15.4159 C.ar    1  UNL1       -0.0000
     18 C          69.3058   92.2936   14.2405 C.ar    1  UNL1       -0.0003
     19 C          68.0484   91.6946   13.6837 C.ar    1  UNL1       -0.0029
     20 N          64.6656   90.4602   14.5696 N.3     1  UNL1       -0.2690
     21 C          63.7983   90.8093   15.7425 C.3     1  UNL1        0.0724
     22 C          63.1898   89.5409   16.2629 C.3     1  UNL1        0.0188
     23 C          63.6811   88.4078   15.4116 C.3     1  UNL1        0.0188
     24 C          64.5932   88.9760   14.3651 C.3     1  UNL1        0.0724
@<TRIPOS>BOND
     1     2     3   ar
     2     3     4   ar
     3     4     5   ar
     4     5     1    1
     5     1    13    1
     6    13    14    1
     7    14    15   ar
     8    15    16   ar
     9    16    17   ar
    10    17    18   ar
    11    18    19   ar
    12    13    20    1
    13    20    21    1
    14    21    22    1
    15    22    23    1
    16    23    24    1
    17     1     8    1
    18     8     9    1
    19     9    10    1
    20    10    11    1
    21    11    12    1
    22     5     6   ar
    23     6     7   ar
    24     7     2   ar
    25    19    14   ar
    26    24    20    1
    27    12     8    1
@<TRIPOS>MOLECULE
*****
 24 27 0 0 0
SMALL
GASTEIGER

@<TRIPOS>ATOM
      1 C          62.6946   86.3840   11.8317 C.3     1  UNL1        0.0991
      2 C          60.6120   86.0872    7.8536 C.ar    1  UNL1       -0.0000
      3 C          62.0181   85.5868    8.0033 C.ar    1  UNL1       -0.0003
      4 C          62.7123   85.6857    9.3293 C.ar    1  UNL1       -0.0029
      5 C          62.0004   86.2851   10.5056 C.ar    1  UNL1       -0.0061
      6 C          60.5943   86.7856   10.3560 C.ar    1  UNL1       -0.0029
      7 C          59.9001   86.6866    9.0300 C.ar    1  UNL1       -0.0003
      8 N          63.1032   87.7246   12.3661 N.3     1  UNL1       -0.2690
      9 C          62.7565   89.0556   11.7672 C.3     1  UNL1        0.0724
     10 C          63.3693   90.1233   12.6243 C.3     1  UNL1        0.0188
     11 C          64.0946   89.4523   13.7529 C.3     1  UNL1        0.0188
     12 C          63.9301   87.9698   13.5934 C.3     1  UNL1        0.0724
     13 C          62.9801   85.1423   12.6232 C.3     1  UNL1        0.0991
     14 C          63.1948   83.8360   11.9178 C.ar    1  UNL1       -0.0061
     15 C          64.2316   83.7276   10.8392 C.ar    1  UNL1       -0.0029
     16 C          64.4463   82.4214   10.1338 C.ar    1  UNL1       -0.0003
     17 C          63.6242   81.2235   10.5071 C.ar    1  UNL1       -0.0000
     18 C          62.5874   81.3319   11.5857 C.ar    1  UNL1       -0.0003
     19 C          62.3728   82.6382   12.2911 C.ar    1  UNL1       -0.0029
     20 N          63.0511   85.2069   14.1202 N.3     1  UNL1       -0.2690
     21 C          61.9140   84.9645   15.0680 C.3     1  UNL1        0.0724
     22 C          62.4317   85.1330   16.4657 C.3     1  UNL1        0.0188
     23 C          63.8888   85.4794   16.3817 C.3     1  UNL1        0.0188
     24 C          64.2715   85.5251   14.9321 C.3     1  UNL1        0.0724
@<TRIPOS>BOND
     1     2     3   ar
     2     3     4   ar
     3     4     5   ar
     4     5     1    1
     5     1    13    1
     6    13    14    1
     7    14    15   ar
     8    15    16   ar
     9    16    17   ar
    10    17    18   ar
    11    18    19   ar
    12    13    20    1
    13    20    21    1
    14    21    22    1
    15    22    23    1
    16    23    24    1
    17     1     8    1
    18     8     9    1
    19     9    10    1
    20    10    11    1
    21    11    12    1
    22     5     6   ar
    23     6     7   ar
    24     7     2   ar
    25    19    14   ar
    26    24    20    1
    27    12     8    1
@<TRIPOS>MOLECULE
*****
 24 27 0 0 0
SMALL
GASTEIGER

@<TRIPOS>ATOM
      1 C          62.8423   94.3578   -0.0084 C.3     1  UNL1        0.0991
      2 C          64.4212   93.9847   -4.2057 C.ar    1  UNL1       -0.0000
      3 C          63.6975   92.8340   -3.5716 C.ar    1  UNL1       -0.0003
      4 C          63.1711   92.9584   -2.1725 C.ar    1  UNL1       -0.0029
      5 C          63.3686   94.2334   -1.4075 C.ar    1  UNL1       -0.0061
      6 C          64.0923   95.3840   -2.0416 C.ar    1  UNL1       -0.0029
      7 C          64.6186   95.2597   -3.4407 C.ar    1  UNL1       -0.0003
      8 N          63.6186   95.1264    1.0194 N.3     1  UNL1       -0.2690
      9 C          64.9134   94.7012    1.6463 C.3     1  UNL1        0.0724
     10 C          65.3315   95.7672    2.6151 C.3     1  UNL1        0.0188
     11 C          64.2952   96.8514    2.5871 C.3     1  UNL1        0.0188
     12 C          63.2366   96.4553    1.6009 C.3     1  UNL1        0.0724
     13 C          61.5396   93.7135    0.3630 C.3     1  UNL1        0.0991
     14 C          61.4077   92.9864    1.6683 C.ar    1  UNL1       -0.0061
     15 C          62.5137   92.0912    2.1433 C.ar    1  UNL1       -0.0029
     16 C          62.3817   91.3641    3.4486 C.ar    1  UNL1       -0.0003
     17 C          61.1439   91.5322    4.2790 C.ar    1  UNL1       -0.0000
     18 C          60.0380   92.4274    3.8041 C.ar    1  UNL1       -0.0003
     19 C          60.1699   93.1545    2.4987 C.ar    1  UNL1       -0.0029
     20 N          60.3688   93.7962   -0.5711 N.3     1  UNL1       -0.2690
     21 C          59.6439   92.6335   -1.1815 C.3     1  UNL1        0.0724
     22 C          58.5445   93.1750   -2.0463 C.3     1  UNL1        0.0188
     23 C          58.5898   94.6724   -1.9705 C.3     1  UNL1        0.0188
     24 C          59.7173   95.0563   -1.0587 C.3     1  UNL1        0.0724
@<TRIPOS>BOND
     1     2     3   ar
     2     3     4   ar
     3     4     5   ar
     4     5     1    1
     5     1    13    1
     6    13    14    1
     7    14    15   ar
     8    15    16   ar
     9    16    17   ar
    10    17    18   ar
    11    18    19   ar
    12    13    20    1
    13    20    21    1
    14    21    22    1
    15    22    23    1
    16    23    24    1
    17     1     8    1
    18     8     9    1
    19     9    10    1
    20    10    11    1
    21    11    12    1
    22     5     6   ar
    23     6     7   ar
    24     7     2   ar
    25    19    14   ar
    26    24    20    1
    27    12     8    1
@<TRIPOS>MOLECULE
*****
 24 27 0 0 0
SMALL
GASTEIGER

@<TRIPOS>ATOM
      1 C          61.1970   93.6308    0.3322 C.3     1  UNL1        0.0991
      2 C          61.9780   91.2872    4.0935 C.ar    1  UNL1       -0.0000
      3 C          60.6730   92.0045    3.9142 C.ar    1  UNL1       -0.0003
      4 C          60.4126   92.7857    2.6604 C.ar    1  UNL1       -0.0029
      5 C          61.4573   92.8496    1.5860 C.ar    1  UNL1       -0.0061
      6 C          62.7624   92.1323    1.7653 C.ar    1  UNL1       -0.0029
      7 C          63.0227   91.3511    3.0191 C.ar    1  UNL1       -0.0003
      8 N          59.8043   93.7259   -0.2167 N.3     1  UNL1       -0.2690
      9 C          58.9168   94.9341   -0.1651 C.3     1  UNL1        0.0724
     10 C          57.6185   94.5844   -0.8300 C.3     1  UNL1        0.0188
     11 C          57.7035   93.1600   -1.2926 C.3     1  UNL1        0.0188
     12 C          59.0545   92.6294   -0.9135 C.3     1  UNL1        0.0724
     13 C          62.3293   94.3169   -0.3727 C.3     1  UNL1        0.0991
     14 C          62.5213   94.1243   -1.8479 C.ar    1  UNL1       -0.0061
     15 C          61.7556   94.9713   -2.8207 C.ar    1  UNL1       -0.0029
     16 C          61.9476   94.7786   -4.2959 C.ar    1  UNL1       -0.0003
     17 C          62.9052   93.7390   -4.7981 C.ar    1  UNL1       -0.0000
     18 C          63.6707   92.8920   -3.8253 C.ar    1  UNL1       -0.0003
     19 C          63.4788   93.0847   -2.3501 C.ar    1  UNL1       -0.0029
     20 N          63.2698   95.1958    0.3975 N.3     1  UNL1       -0.2690
     21 C          62.8811   96.2105    1.4315 C.3     1  UNL1        0.0724
     22 C          64.1352   96.8560    1.9420 C.3     1  UNL1        0.0188
     23 C          65.2991   96.2402    1.2234 C.3     1  UNL1        0.0188
     24 C          64.7642   95.2142    0.2689 C.3     1  UNL1        0.0724
@<TRIPOS>BOND
     1     2     3   ar
     2     3     4   ar
     3     4     5   ar
     4     5     1    1
     5     1    13    1
     6    13    14    1
     7    14    15   ar
     8    15    16   ar
     9    16    17   ar
    10    17    18   ar
    11    18    19   ar
    12    13    20    1
    13    20    21    1
    14    21    22    1
    15    22    23    1
    16    23    24    1
    17     1     8    1
    18     8     9    1
    19     9    10    1
    20    10    11    1
    21    11    12    1
    22     5     6   ar
    23     6     7   ar
    24     7     2   ar
    25    19    14   ar
    26    24    20    1
    27    12     8    1
