@<TRIPOS>MOLECULE
*****
 29 31 0 0 0
SMALL
GASTEIGER

@<TRIPOS>ATOM
      1 C          62.2908   81.3033   14.1873 C.3     1  UNL1        0.0038
      2 C          63.1967   80.9028   13.0609 C.3     1  UNL1        0.0473
      3 C          63.0085   81.5009   11.6983 C.3     1  UNL1        0.2054
      4 O          63.8592   82.6570   11.2625 O.3     1  UNL1       -0.4755
      5 C          61.9266   86.4188    9.7251 C.ar    1  UNL1        0.0538
      6 C          62.8146   85.6105    8.8262 C.ar    1  UNL1        0.0076
      7 C          63.4588   84.3565    9.3387 C.ar    1  UNL1        0.0370
      8 C          63.2150   83.9109   10.7501 C.ar    1  UNL1        0.1386
      9 C          62.3269   84.7192   11.6489 C.ar    1  UNL1        0.0370
     10 C          61.6827   85.9732   11.1365 C.ar    1  UNL1        0.0076
     11 C          59.5039   88.8415    7.7223 C.3     1  UNL1        0.1152
     12 N          60.1481   87.5876    8.2347 N.am    1  UNL1       -0.2726
     13 C          59.6580   86.2484    7.7694 C.3     1  UNL1        0.1152
     14 C          61.2824   87.6727    9.2126 C.2     1  UNL1        0.2491
     15 O          61.7724   89.0119    9.6780 O.2     1  UNL1       -0.2699
     16 C          62.2663   82.7267   14.6603 C.3     1  UNL1        0.0001
     17 C          63.5279   83.3781   15.1438 C.3     1  UNL1        0.0000
     18 C          63.5734   84.8631   15.3512 C.3     1  UNL1        0.0000
     19 C          64.2888   85.7367   14.3639 C.3     1  UNL1        0.0001
     20 C          64.3342   87.2216   14.5713 C.3     1  UNL1        0.0025
     21 C          63.6642   87.8328   15.7661 C.3     1  UNL1        0.0297
     22 C          62.9488   86.9592   16.7535 C.3     1  UNL1        0.0025
     23 C          62.9034   85.4743   16.5460 C.3     1  UNL1        0.0001
     24 C          63.0438   88.5830   16.9073 C.3     1  UNL1        0.1419
     25 O          63.3342   90.0422   16.7153 O.3     1  UNL1       -0.3585
     26 C          64.1341   90.1937   15.4554 C.3     1  UNL1        0.0930
     27 C          64.0957   91.6546   15.7934 C.3     1  UNL1        0.0296
     28 C          64.9260   90.6505   14.2662 C.3     1  UNL1        0.0296
     29 C          64.3381   88.8283   14.8688 C.3     1  UNL1        0.0296
@<TRIPOS>BOND
     1    11    12    1
     2    12    13    1
     3    12    14   am
     4    14    15    2
     5    14     5    1
     6     5     6   ar
     7     6     7   ar
     8     7     8   ar
     9     8     4    1
    10     4     3    1
    11     3     2    1
    12     2     1    1
    13     1    16    1
    14    16    17    1
    15    18    17    1
    16    18    19    1
    17    19    20    1
    18    21    20    1
    19    21    22    1
    20    22    23    1
    21    21    24    1
    22    24    25    1
    23    25    26    1
    24    26    27    1
    25    26    28    1
    26    26    29    1
    27     8     9   ar
    28     9    10   ar
    29    10     5   ar
    30    23    18    1
    31    29    21    1
@<TRIPOS>MOLECULE
*****
 29 31 0 0 0
SMALL
GASTEIGER

@<TRIPOS>ATOM
      1 C          63.7402   87.3264   16.0622 C.3     1  UNL1        0.0038
      2 C          63.1688   88.6717   16.3995 C.3     1  UNL1        0.0473
      3 C          63.3241   89.8143   15.4402 C.3     1  UNL1        0.2054
      4 O          64.5028   90.7349   15.5548 O.3     1  UNL1       -0.4755
      5 C          66.4570   92.3610   11.8417 C.ar    1  UNL1        0.0538
      6 C          67.2638   92.1702   13.0917 C.ar    1  UNL1        0.0076
      7 C          66.6124   91.6281   14.3294 C.ar    1  UNL1        0.0370
      8 C          65.1542   91.2769   14.3171 C.ar    1  UNL1        0.1386
      9 C          64.3473   91.4678   13.0671 C.ar    1  UNL1        0.0370
     10 C          64.9987   92.0098   11.8294 C.ar    1  UNL1        0.0076
     11 C          67.6598   94.9069    9.0449 C.3     1  UNL1        0.1152
     12 N          67.0084   94.3648   10.2826 N.am    1  UNL1       -0.2726
     13 C          66.2571   95.2846   11.1989 C.3     1  UNL1        0.1152
     14 C          67.1083   92.9030   10.6040 C.2     1  UNL1        0.2491
     15 O          67.8597   91.9833    9.6877 O.2     1  UNL1       -0.2699
     16 C          64.4709   87.1250   14.7677 C.3     1  UNL1        0.0001
     17 C          63.9278   86.1775   13.7395 C.3     1  UNL1        0.0000
     18 C          63.1150   86.7008   12.5924 C.3     1  UNL1        0.0000
     19 C          62.2794   85.7610   11.7749 C.3     1  UNL1        0.0001
     20 C          61.4667   86.2843   10.6280 C.3     1  UNL1        0.0025
     21 C          61.4896   87.7475   10.2985 C.3     1  UNL1        0.0297
     22 C          62.3253   88.6874   11.1160 C.3     1  UNL1        0.0025
     23 C          63.1380   88.1640   12.2629 C.3     1  UNL1        0.0001
     24 C          61.4129   89.1776    9.8522 C.3     1  UNL1        0.1419
     25 O          60.4868   89.2466    8.6742 O.3     1  UNL1       -0.3585
     26 C          59.9910   87.8591    8.3925 C.3     1  UNL1        0.0930
     27 C          59.2346   88.5246    7.2812 C.3     1  UNL1        0.0296
     28 C          59.3372   86.6109    7.8785 C.3     1  UNL1        0.0296
     29 C          60.6108   86.9327    9.3963 C.3     1  UNL1        0.0296
@<TRIPOS>BOND
     1    11    12    1
     2    12    13    1
     3    12    14   am
     4    14    15    2
     5    14     5    1
     6     5     6   ar
     7     6     7   ar
     8     7     8   ar
     9     8     4    1
    10     4     3    1
    11     3     2    1
    12     2     1    1
    13     1    16    1
    14    16    17    1
    15    18    17    1
    16    18    19    1
    17    19    20    1
    18    21    20    1
    19    21    22    1
    20    22    23    1
    21    21    24    1
    22    24    25    1
    23    25    26    1
    24    26    27    1
    25    26    28    1
    26    26    29    1
    27     8     9   ar
    28     9    10   ar
    29    10     5   ar
    30    23    18    1
    31    29    21    1
@<TRIPOS>MOLECULE
*****
 29 31 0 0 0
SMALL
GASTEIGER

@<TRIPOS>ATOM
      1 C          64.0845   90.8813   15.5966 C.3     1  UNL1        0.0038
      2 C          63.4009   90.0979   16.6778 C.3     1  UNL1        0.0473
      3 C          62.8159   88.7509   16.3723 C.3     1  UNL1        0.2054
      4 O          63.4638   87.5114   16.9144 O.3     1  UNL1       -0.4755
      5 C          63.4665   83.7259   14.4812 C.ar    1  UNL1        0.0538
      6 C          64.5335   84.7577   14.2644 C.ar    1  UNL1        0.0076
      7 C          64.5325   86.0195   15.0755 C.ar    1  UNL1        0.0370
      8 C          63.4647   86.2496   16.1034 C.ar    1  UNL1        0.1386
      9 C          62.3977   85.2178   16.3202 C.ar    1  UNL1        0.0370
     10 C          62.3986   83.9560   15.5092 C.ar    1  UNL1        0.0076
     11 C          63.0970   81.2442   11.4064 C.3     1  UNL1        0.1152
     12 N          63.0961   82.5060   12.2175 N.am    1  UNL1       -0.2726
     13 C          62.7238   83.8097   11.5758 C.3     1  UNL1        0.1152
     14 C          63.4674   82.4641   13.6702 C.2     1  UNL1        0.2491
     15 O          63.8396   81.1604   14.3119 O.2     1  UNL1       -0.2699
     16 C          64.5021   90.2006   14.3268 C.3     1  UNL1        0.0001
     17 C          64.0793   90.7611   13.0013 C.3     1  UNL1        0.0000
     18 C          63.2148   89.9476   12.0843 C.3     1  UNL1        0.0000
     19 C          62.4654   90.6166   10.9705 C.3     1  UNL1        0.0001
     20 C          61.6009   89.8030   10.0536 C.3     1  UNL1        0.0025
     21 C          61.4859   88.3205   10.2505 C.3     1  UNL1        0.0297
     22 C          62.2354   87.6515   11.3643 C.3     1  UNL1        0.0025
     23 C          63.0998   88.4650   12.2812 C.3     1  UNL1        0.0001
     24 C          61.2742   86.8373   10.3237 C.3     1  UNL1        0.1419
     25 O          60.3387   86.4474    9.2177 O.3     1  UNL1       -0.3585
     26 C          59.9724   87.6897    8.4609 C.3     1  UNL1        0.0930
     27 C          59.1510   86.7507    7.6281 C.3     1  UNL1        0.0296
     28 C          59.4344   88.7356    7.5301 C.3     1  UNL1        0.0296
     29 C          60.6814   88.8472    9.0992 C.3     1  UNL1        0.0296
@<TRIPOS>BOND
     1    11    12    1
     2    12    13    1
     3    12    14   am
     4    14    15    2
     5    14     5    1
     6     5     6   ar
     7     6     7   ar
     8     7     8   ar
     9     8     4    1
    10     4     3    1
    11     3     2    1
    12     2     1    1
    13     1    16    1
    14    16    17    1
    15    18    17    1
    16    18    19    1
    17    19    20    1
    18    21    20    1
    19    21    22    1
    20    22    23    1
    21    21    24    1
    22    24    25    1
    23    25    26    1
    24    26    27    1
    25    26    28    1
    26    26    29    1
    27     8     9   ar
    28     9    10   ar
    29    10     5   ar
    30    23    18    1
    31    29    21    1
@<TRIPOS>MOLECULE
*****
 29 31 0 0 0
SMALL
GASTEIGER

@<TRIPOS>ATOM
      1 C          60.3327   89.5293    9.4191 C.3     1  UNL1        0.0038
      2 C          59.8133   90.0907   10.7094 C.3     1  UNL1        0.0473
      3 C          60.5070   89.7697   12.0000 C.3     1  UNL1        0.2054
      4 O          61.8536   89.1090   11.9837 O.3     1  UNL1       -0.4755
      5 C          65.4622   91.3172   13.5170 C.ar    1  UNL1        0.0538
      6 C          64.7484   91.8061   12.2917 C.ar    1  UNL1        0.0076
      7 C          63.5455   91.0700   11.7806 C.ar    1  UNL1        0.0370
      8 C          63.0564   89.8450   12.4948 C.ar    1  UNL1        0.1386
      9 C          63.7702   89.3561   13.7201 C.ar    1  UNL1        0.0370
     10 C          64.9731   90.0921   14.2312 C.ar    1  UNL1        0.0076
     11 C          67.8548   93.3825   15.9170 C.3     1  UNL1        0.1152
     12 N          66.6520   92.6465   15.4059 N.am    1  UNL1       -0.2726
     13 C          65.4359   92.5036   16.2723 C.3     1  UNL1        0.1152
     14 C          66.6651   92.0532   14.0282 C.2     1  UNL1        0.2491
     15 O          67.8812   92.1961   13.1617 O.2     1  UNL1       -0.2699
     16 C          60.1685   88.0693    9.1162 C.3     1  UNL1        0.0001
     17 C          61.3292   87.2769    8.5923 C.3     1  UNL1        0.0000
     18 C          61.9169   86.1715    9.4187 C.3     1  UNL1        0.0000
     19 C          61.4840   85.9886   10.8432 C.3     1  UNL1        0.0001
     20 C          62.0716   84.8833   11.6696 C.3     1  UNL1        0.0025
     21 C          63.0921   83.9609   11.0715 C.3     1  UNL1        0.0297
     22 C          63.5250   84.1437    9.6470 C.3     1  UNL1        0.0025
     23 C          62.9374   85.2490    8.8207 C.3     1  UNL1        0.0001
     24 C          64.1163   82.9657   10.6125 C.3     1  UNL1        0.1419
     25 O          64.4159   82.0464   11.7594 O.3     1  UNL1       -0.3585
     26 C          63.5768   82.4734   12.9271 C.3     1  UNL1        0.0930
     27 C          64.2489   81.3295   13.6269 C.3     1  UNL1        0.0296
     28 C          62.8782   82.6612   14.2411 C.3     1  UNL1        0.0296
     29 C          62.7587   83.6565   12.5020 C.3     1  UNL1        0.0296
@<TRIPOS>BOND
     1    11    12    1
     2    12    13    1
     3    12    14   am
     4    14    15    2
     5    14     5    1
     6     5     6   ar
     7     6     7   ar
     8     7     8   ar
     9     8     4    1
    10     4     3    1
    11     3     2    1
    12     2     1    1
    13     1    16    1
    14    16    17    1
    15    18    17    1
    16    18    19    1
    17    19    20    1
    18    21    20    1
    19    21    22    1
    20    22    23    1
    21    21    24    1
    22    24    25    1
    23    25    26    1
    24    26    27    1
    25    26    28    1
    26    26    29    1
    27     8     9   ar
    28     9    10   ar
    29    10     5   ar
    30    23    18    1
    31    29    21    1
@<TRIPOS>MOLECULE
*****
 29 31 0 0 0
SMALL
GASTEIGER

@<TRIPOS>ATOM
      1 C          59.2369   87.8323    8.0497 C.3     1  UNL1        0.0038
      2 C          60.1802   88.9898    8.1923 C.3     1  UNL1        0.0473
      3 C          60.7447   89.3358    9.5383 C.3     1  UNL1        0.2054
      4 O          62.1558   88.9582    9.8794 O.3     1  UNL1       -0.4755
      5 C          64.1642   90.7729   13.4743 C.ar    1  UNL1        0.0538
      6 C          63.8250   89.3118   13.4625 C.ar    1  UNL1        0.0076
      7 C          63.1555   88.7069   12.2642 C.ar    1  UNL1        0.0370
      8 C          62.8253   89.5631   11.0776 C.ar    1  UNL1        0.1386
      9 C          63.1645   91.0242   11.0894 C.ar    1  UNL1        0.0370
     10 C          63.8340   91.6291   12.2876 C.ar    1  UNL1        0.0076
     11 C          66.9092   92.4947   15.7657 C.3     1  UNL1        0.1152
     12 N          66.2397   91.8898   14.5674 N.am    1  UNL1       -0.2726
     13 C          66.9762   91.7969   13.2640 C.3     1  UNL1        0.1152
     14 C          64.8337   91.3778   14.6725 C.2     1  UNL1        0.2491
     15 O          64.0971   91.4707   15.9759 O.2     1  UNL1       -0.2699
     16 C          59.7749   86.4466    7.8485 C.3     1  UNL1        0.0001
     17 C          61.2542   86.2026    7.8931 C.3     1  UNL1        0.0000
     18 C          61.8779   85.5970    9.1156 C.3     1  UNL1        0.0000
     19 C          61.3293   85.9171   10.4744 C.3     1  UNL1        0.0001
     20 C          61.9530   85.3115   11.6967 C.3     1  UNL1        0.0025
     21 C          63.1253   84.3857   11.5602 C.3     1  UNL1        0.0297
     22 C          63.6739   84.0656   10.2014 C.3     1  UNL1        0.0025
     23 C          63.0502   84.6712    8.9791 C.3     1  UNL1        0.0001
     24 C          64.2958   83.4478   11.5803 C.3     1  UNL1        0.1419
     25 O          64.5819   83.0940   13.0097 O.3     1  UNL1       -0.3585
     26 C          63.5883   83.8134   13.8730 C.3     1  UNL1        0.0930
     27 C          64.3125   83.1359   14.9984 C.3     1  UNL1        0.0296
     28 C          62.7461   84.3911   14.9716 C.3     1  UNL1        0.0296
     29 C          62.6881   84.6117   12.9773 C.3     1  UNL1        0.0296
@<TRIPOS>BOND
     1    11    12    1
     2    12    13    1
     3    12    14   am
     4    14    15    2
     5    14     5    1
     6     5     6   ar
     7     6     7   ar
     8     7     8   ar
     9     8     4    1
    10     4     3    1
    11     3     2    1
    12     2     1    1
    13     1    16    1
    14    16    17    1
    15    18    17    1
    16    18    19    1
    17    19    20    1
    18    21    20    1
    19    21    22    1
    20    22    23    1
    21    21    24    1
    22    24    25    1
    23    25    26    1
    24    26    27    1
    25    26    28    1
    26    26    29    1
    27     8     9   ar
    28     9    10   ar
    29    10     5   ar
    30    23    18    1
    31    29    21    1
@<TRIPOS>MOLECULE
*****
 29 31 0 0 0
SMALL
GASTEIGER

@<TRIPOS>ATOM
      1 C          63.1299   88.7732   16.8176 C.3     1  UNL1        0.0038
      2 C          63.4177   89.1757   15.4016 C.3     1  UNL1        0.0473
      3 C          63.8587   90.5761   15.0949 C.3     1  UNL1        0.2054
      4 O          65.2322   90.8268   14.5465 O.3     1  UNL1       -0.4755
      5 C          65.8395   93.9039   11.3196 C.ar    1  UNL1        0.0538
      6 C          66.4762   94.0920   12.6647 C.ar    1  UNL1        0.0076
      7 C          66.2737   93.0662   13.7403 C.ar    1  UNL1        0.0370
      8 C          65.4346   91.8525   13.4709 C.ar    1  UNL1        0.1386
      9 C          64.7979   91.6644   12.1258 C.ar    1  UNL1        0.0370
     10 C          65.0003   92.6900   11.0502 C.ar    1  UNL1        0.0076
     11 C          67.3432   95.7803    8.1624 C.3     1  UNL1        0.1152
     12 N          67.1408   94.7546    9.2381 N.am    1  UNL1       -0.2726
     13 C          68.0373   93.5541    9.3079 C.3     1  UNL1        0.1152
     14 C          66.0419   94.9295   10.2440 C.2     1  UNL1        0.2491
     15 O          65.1454   96.1301   10.1742 O.2     1  UNL1       -0.2699
     16 C          62.7011   87.3692   17.1259 C.3     1  UNL1        0.0001
     17 C          63.6701   86.2360   16.9624 C.3     1  UNL1        0.0000
     18 C          63.5197   85.2798   15.8165 C.3     1  UNL1        0.0000
     19 C          64.3349   85.4671   14.5714 C.3     1  UNL1        0.0001
     20 C          64.1845   84.5110   13.4255 C.3     1  UNL1        0.0025
     21 C          63.2187   83.3676   13.5247 C.3     1  UNL1        0.0297
     22 C          62.4034   83.1802   14.7697 C.3     1  UNL1        0.0025
     23 C          62.5539   84.1364   15.9156 C.3     1  UNL1        0.0001
     24 C          62.2983   82.1840   13.4790 C.3     1  UNL1        0.1419
     25 O          62.4730   81.5120   12.1492 O.3     1  UNL1       -0.3585
     26 C          63.5013   82.2803   11.3732 C.3     1  UNL1        0.0930
     27 C          63.2442   81.2491   10.3147 C.3     1  UNL1        0.0296
     28 C          64.4758   82.8331   10.3759 C.3     1  UNL1        0.0296
     29 C          63.9622   83.4271   12.2232 C.3     1  UNL1        0.0296
@<TRIPOS>BOND
     1    11    12    1
     2    12    13    1
     3    12    14   am
     4    14    15    2
     5    14     5    1
     6     5     6   ar
     7     6     7   ar
     8     7     8   ar
     9     8     4    1
    10     4     3    1
    11     3     2    1
    12     2     1    1
    13     1    16    1
    14    16    17    1
    15    18    17    1
    16    18    19    1
    17    19    20    1
    18    21    20    1
    19    21    22    1
    20    22    23    1
    21    21    24    1
    22    24    25    1
    23    25    26    1
    24    26    27    1
    25    26    28    1
    26    26    29    1
    27     8     9   ar
    28     9    10   ar
    29    10     5   ar
    30    23    18    1
    31    29    21    1
@<TRIPOS>MOLECULE
*****
 29 31 0 0 0
SMALL
GASTEIGER

@<TRIPOS>ATOM
      1 C          63.1187   81.1053   10.9057 C.3     1  UNL1        0.0038
      2 C          62.2880   81.1406   12.1542 C.3     1  UNL1        0.0473
      3 C          62.7318   80.3855   13.3719 C.3     1  UNL1        0.2054
      4 O          63.7062   81.0086   14.3270 O.3     1  UNL1       -0.4755
      5 C          63.6449   85.4539   15.0235 C.ar    1  UNL1        0.0538
      6 C          64.9157   84.7785   14.6007 C.ar    1  UNL1        0.0076
      7 C          64.9361   83.2966   14.3685 C.ar    1  UNL1        0.0370
      8 C          63.6858   82.4903   14.5592 C.ar    1  UNL1        0.1386
      9 C          62.4149   83.1657   14.9821 C.ar    1  UNL1        0.0370
     10 C          62.3945   84.6475   15.2142 C.ar    1  UNL1        0.0076
     11 C          63.2007   88.9614   16.8264 C.3     1  UNL1        0.1152
     12 N          63.2212   87.4796   16.5942 N.am    1  UNL1       -0.2726
     13 C          62.8385   86.5418   17.7006 C.3     1  UNL1        0.1152
     14 C          63.6244   86.9357   15.2557 C.2     1  UNL1        0.2491
     15 O          64.0071   87.8735   14.1494 O.2     1  UNL1       -0.2699
     16 C          64.2646   82.0590   10.7400 C.3     1  UNL1        0.0001
     17 C          64.1951   83.1422    9.7047 C.3     1  UNL1        0.0000
     18 C          63.3949   84.3829    9.9699 C.3     1  UNL1        0.0000
     19 C          62.9712   85.2601    8.8293 C.3     1  UNL1        0.0001
     20 C          62.1710   86.5008    9.0945 C.3     1  UNL1        0.0025
     21 C          61.7946   86.8643   10.5003 C.3     1  UNL1        0.0297
     22 C          62.2183   85.9871   11.6409 C.3     1  UNL1        0.0025
     23 C          63.0185   84.7464   11.3757 C.3     1  UNL1        0.0001
     24 C          61.3463   87.3536   11.8455 C.3     1  UNL1        0.1419
     25 O          60.5768   88.6254   11.6435 O.3     1  UNL1       -0.3585
     26 C          60.5496   88.9220   10.1733 C.3     1  UNL1        0.0930
     27 C          59.7566   90.1249   10.5907 C.3     1  UNL1        0.0296
     28 C          60.3565   89.4700    8.7905 C.3     1  UNL1        0.0296
     29 C          61.3021   87.8336    9.4668 C.3     1  UNL1        0.0296
@<TRIPOS>BOND
     1    11    12    1
     2    12    13    1
     3    12    14   am
     4    14    15    2
     5    14     5    1
     6     5     6   ar
     7     6     7   ar
     8     7     8   ar
     9     8     4    1
    10     4     3    1
    11     3     2    1
    12     2     1    1
    13     1    16    1
    14    16    17    1
    15    18    17    1
    16    18    19    1
    17    19    20    1
    18    21    20    1
    19    21    22    1
    20    22    23    1
    21    21    24    1
    22    24    25    1
    23    25    26    1
    24    26    27    1
    25    26    28    1
    26    26    29    1
    27     8     9   ar
    28     9    10   ar
    29    10     5   ar
    30    23    18    1
    31    29    21    1
@<TRIPOS>MOLECULE
*****
 29 31 0 0 0
SMALL
GASTEIGER

@<TRIPOS>ATOM
      1 C          63.1456   81.5804   11.2764 C.3     1  UNL1        0.0038
      2 C          62.2599   81.6540   12.4847 C.3     1  UNL1        0.0473
      3 C          62.7848   81.2355   13.8260 C.3     1  UNL1        0.2054
      4 O          63.9702   81.9372   14.4198 O.3     1  UNL1       -0.4755
      5 C          63.6028   86.2073   15.7914 C.ar    1  UNL1        0.0538
      6 C          64.7872   85.7808   14.9758 C.ar    1  UNL1        0.0076
      7 C          64.9097   84.3574   14.5186 C.ar    1  UNL1        0.0370
      8 C          63.8477   83.3605   14.8770 C.ar    1  UNL1        0.1386
      9 C          62.6633   83.7870   15.6926 C.ar    1  UNL1        0.0370
     10 C          62.5408   85.2103   16.1498 C.ar    1  UNL1        0.0076
     11 C          63.6057   90.1756   15.7410 C.3     1  UNL1        0.1152
     12 N          63.7282   88.7522   15.2838 N.am    1  UNL1       -0.2726
     13 C          64.0986   88.4504   13.8620 C.3     1  UNL1        0.1152
     14 C          63.4802   87.6306   16.2486 C.2     1  UNL1        0.2491
     15 O          63.1098   87.9324   17.6704 O.2     1  UNL1       -0.2699
     16 C          64.0772   82.7126   10.9593 C.3     1  UNL1        0.0001
     17 C          63.8321   83.5700    9.7532 C.3     1  UNL1        0.0000
     18 C          63.0384   84.8364    9.8820 C.3     1  UNL1        0.0000
     19 C          62.6710   85.3564   11.2401 C.3     1  UNL1        0.0001
     20 C          61.8773   86.6226   11.3688 C.3     1  UNL1        0.0025
     21 C          61.4510   87.3689   10.1394 C.3     1  UNL1        0.0297
     22 C          61.8184   86.8488    8.7813 C.3     1  UNL1        0.0025
     23 C          62.6121   85.5826    8.6526 C.3     1  UNL1        0.0001
     24 C          60.9570   88.2188    9.0064 C.3     1  UNL1        0.1419
     25 O          60.2126   89.3828    9.5905 O.3     1  UNL1       -0.3585
     26 C          60.2466   89.2522   11.0845 C.3     1  UNL1        0.0930
     27 C          59.4537   90.5252   11.0564 C.3     1  UNL1        0.0296
     28 C          60.1149   89.3877   12.5725 C.3     1  UNL1        0.0296
     29 C          61.0119   88.0076   11.4237 C.3     1  UNL1        0.0296
@<TRIPOS>BOND
     1    11    12    1
     2    12    13    1
     3    12    14   am
     4    14    15    2
     5    14     5    1
     6     5     6   ar
     7     6     7   ar
     8     7     8   ar
     9     8     4    1
    10     4     3    1
    11     3     2    1
    12     2     1    1
    13     1    16    1
    14    16    17    1
    15    18    17    1
    16    18    19    1
    17    19    20    1
    18    21    20    1
    19    21    22    1
    20    22    23    1
    21    21    24    1
    22    24    25    1
    23    25    26    1
    24    26    27    1
    25    26    28    1
    26    26    29    1
    27     8     9   ar
    28     9    10   ar
    29    10     5   ar
    30    23    18    1
    31    29    21    1
@<TRIPOS>MOLECULE
*****
 29 31 0 0 0
SMALL
GASTEIGER

@<TRIPOS>ATOM
      1 C          63.6966   83.7046   15.2810 C.3     1  UNL1        0.0038
      2 C          62.3389   84.2336   15.6368 C.3     1  UNL1        0.0473
      3 C          62.1986   85.2902   16.6922 C.3     1  UNL1        0.2054
      4 O          63.3568   86.1874   17.0139 O.3     1  UNL1       -0.4755
      5 C          64.1186   89.8583   14.5251 C.ar    1  UNL1        0.0538
      6 C          64.5089   88.5061   14.0062 C.ar    1  UNL1        0.0076
      7 C          64.2549   87.2824   14.8359 C.ar    1  UNL1        0.0370
      8 C          63.6108   87.4110   16.1844 C.ar    1  UNL1        0.1386
      9 C          63.2205   88.7632   16.7033 C.ar    1  UNL1        0.0370
     10 C          63.4744   89.9868   15.8737 C.ar    1  UNL1        0.0076
     11 C          65.9214   93.0499   13.0042 C.3     1  UNL1        0.1152
     12 N          65.6675   91.8263   13.8338 N.am    1  UNL1       -0.2726
     13 C          66.7085   91.3470   14.8016 C.3     1  UNL1        0.1152
     14 C          64.3725   91.0819   13.6956 C.2     1  UNL1        0.2491
     15 O          63.3316   91.5612   12.7278 O.2     1  UNL1       -0.2699
     16 C          63.8532   82.7518   14.1331 C.3     1  UNL1        0.0001
     17 C          64.4924   83.2134   12.8571 C.3     1  UNL1        0.0000
     18 C          63.6954   84.0042   11.8623 C.3     1  UNL1        0.0000
     19 C          62.6877   85.0086   12.3372 C.3     1  UNL1        0.0001
     20 C          61.8907   85.7993   11.3424 C.3     1  UNL1        0.0025
     21 C          62.1015   85.5856    9.8727 C.3     1  UNL1        0.0297
     22 C          63.1092   84.5811    9.3979 C.3     1  UNL1        0.0025
     23 C          63.9061   83.7904   10.3926 C.3     1  UNL1        0.0001
     24 C          62.2022   85.4814    8.3797 C.3     1  UNL1        0.1419
     25 O          61.2268   86.4508    7.7805 O.3     1  UNL1       -0.3585
     26 C          60.5233   87.1541    8.9033 C.3     1  UNL1        0.0930
     27 C          59.8043   87.8670    7.7966 C.3     1  UNL1        0.0296
     28 C          59.6695   88.0064    9.7946 C.3     1  UNL1        0.0296
     29 C          61.0639   86.6194   10.1963 C.3     1  UNL1        0.0296
@<TRIPOS>BOND
     1    11    12    1
     2    12    13    1
     3    12    14   am
     4    14    15    2
     5    14     5    1
     6     5     6   ar
     7     6     7   ar
     8     7     8   ar
     9     8     4    1
    10     4     3    1
    11     3     2    1
    12     2     1    1
    13     1    16    1
    14    16    17    1
    15    18    17    1
    16    18    19    1
    17    19    20    1
    18    21    20    1
    19    21    22    1
    20    22    23    1
    21    21    24    1
    22    24    25    1
    23    25    26    1
    24    26    27    1
    25    26    28    1
    26    26    29    1
    27     8     9   ar
    28     9    10   ar
    29    10     5   ar
    30    23    18    1
    31    29    21    1
