@<TRIPOS>MOLECULE
*****
 42 48 0 0 0
SMALL
GASTEIGER

@<TRIPOS>ATOM
      1 C          60.8240   92.4477    2.6518 C.2     1  UNL1       -0.0378
      2 C          61.9378   91.7119    3.3361 C.2     1  UNL1       -0.0080
      3 C          61.6539   90.8897    4.5582 C.2     1  UNL1        0.0022
      4 C          60.2563   90.8032    5.0959 C.2     1  UNL1        0.0350
      5 C          59.6771   90.0769    6.2737 C.2     1  UNL1        0.1040
      6 N          58.2055   90.3638    6.3173 N.2     1  UNL1       -0.1483
      7 N          57.8751   91.2674    5.1666 N.2     1  UNL1       -0.1520
      8 C          59.1425   91.5390    4.4117 C.2     1  UNL1        0.0860
      9 C          59.4264   92.3612    3.1897 C.3     1  UNL1        0.0697
     10 C          62.4595   96.2496   -2.7963 C.ar    1  UNL1        0.1385
     11 C          63.8892   96.6479   -2.5790 C.ar    1  UNL1        0.0382
     12 C          64.6159   96.1924   -1.3484 C.ar    1  UNL1        0.0175
     13 C          63.9129   95.3386   -0.3351 C.ar    1  UNL1        0.0469
     14 C          62.4831   94.9403   -0.5524 C.ar    1  UNL1        0.0022
     15 C          61.7564   95.3957   -1.7830 C.ar    1  UNL1        0.0343
     16 C          62.0544   94.0982    0.6125 C.3     1  UNL1        0.0928
     17 C          60.6531   93.8658    0.1306 C.3     1  UNL1        0.0179
     18 C          61.1079   93.2699    1.4298 C.3     1  UNL1        0.0315
     19 C          63.2191   93.9762    1.5498 C.2     1  UNL1        0.2293
     20 O          63.2328   93.2202    2.8453 O.2     1  UNL1       -0.2744
     21 N          64.3677   94.7427    0.9642 N.am    1  UNL1       -0.2839
     22 H          65.2629   94.8381    1.3626 H       1  UNL1        0.1549
     23 C          62.3765   96.5622   -5.3742 C.3     1  UNL1        0.2525
     24 O          61.7328   96.7051   -4.0269 O.3     1  UNL1       -0.4714
     25 C          60.4364   89.2150    7.2384 C.2     1  UNL1        0.0209
     26 C          60.1138   89.2642    8.7024 C.2     1  UNL1        0.0016
     27 C          60.8730   88.4024    9.6672 C.ar    1  UNL1        0.0000
     28 C          61.9987   88.9859   10.4686 C.ar    1  UNL1       -0.0003
     29 C          62.7580   88.1241   11.4334 C.ar    1  UNL1       -0.0029
     30 C          62.3915   86.6788   11.5968 C.ar    1  UNL1       -0.0061
     31 C          61.2657   86.0953   10.7954 C.ar    1  UNL1       -0.0029
     32 C          60.5064   86.9571    9.8306 C.ar    1  UNL1       -0.0003
     33 C          63.1507   85.8170   12.5616 C.3     1  UNL1        0.0991
     34 N          62.9515   84.3304   12.5566 N.3     1  UNL1       -0.2689
     35 C          62.4613   83.6352   13.7921 C.3     1  UNL1        0.0738
     36 C          62.1703   84.4268   15.0326 C.3     1  UNL1        0.0188
     37 C          62.2620   82.1485   13.7872 C.3     1  UNL1        0.0883
     38 N          62.5530   81.3570   12.5467 N.3     1  UNL1       -0.2692
     39 C          62.3537   79.8703   12.5418 C.3     1  UNL1        0.0897
     40 C          63.0432   82.0521   11.3112 C.3     1  UNL1        0.0883
     41 C          63.2425   83.5388   11.3162 C.3     1  UNL1        0.0738
     42 C          63.7327   84.2339   10.0806 C.3     1  UNL1        0.0188
@<TRIPOS>BOND
     1    23    24    1
     2    24    10    1
     3    10    11   ar
     4    11    12   ar
     5    12    13   ar
     6    13    14   ar
     7    14    15   ar
     8    14    16    1
     9    16    17    1
    10    17    18    1
    11    18     1    1
    12     1     2    2
    13     2     3    1
    14     3     4    2
    15     4     5    1
    16     5    25    1
    17    25    26    2
    18    26    27    1
    19    27    28   ar
    20    28    29   ar
    21    29    30   ar
    22    30    33    1
    23    33    34    1
    24    34    35    1
    25    35    36    1
    26    35    37    1
    27    37    38    1
    28    38    39    1
    29    38    40    1
    30    40    41    1
    31    41    42    1
    32    30    31   ar
    33    31    32   ar
    34     5     6    2
    35     6     7    1
    36     7     8    2
    37     8     9    1
    38    16    19    1
    39    19    20    2
    40    19    21   am
    41    15    10   ar
    42    18    16    1
    43     9     1    1
    44    21    13    1
    45     8     4    1
    46    32    27   ar
    47    41    34    1
    48    21    22    1
@<TRIPOS>MOLECULE
*****
 42 48 0 0 0
SMALL
GASTEIGER

@<TRIPOS>ATOM
      1 C          60.7478   92.5213    2.6175 C.2     1  UNL1       -0.0378
      2 C          61.8871   91.8254    3.3014 C.2     1  UNL1       -0.0080
      3 C          61.6339   90.9987    4.5272 C.2     1  UNL1        0.0022
      4 C          60.2413   90.8679    5.0690 C.2     1  UNL1        0.0350
      5 C          59.6897   90.1271    6.2510 C.2     1  UNL1        0.1040
      6 N          58.2094   90.3651    6.2976 N.2     1  UNL1       -0.1483
      7 N          57.8462   91.2530    5.1445 N.2     1  UNL1       -0.1520
      8 C          59.1020   91.5638    4.3852 C.2     1  UNL1        0.0860
      9 C          59.3552   92.3904    3.1594 C.3     1  UNL1        0.0697
     10 C          62.2429   96.3528   -2.8502 C.ar    1  UNL1        0.1385
     11 C          63.6630   96.7894   -2.6440 C.ar    1  UNL1        0.0382
     12 C          64.4103   96.3561   -1.4177 C.ar    1  UNL1        0.0175
     13 C          63.7374   95.4863   -0.3976 C.ar    1  UNL1        0.0469
     14 C          62.3173   95.0496   -0.6038 C.ar    1  UNL1        0.0022
     15 C          61.5699   95.4828   -1.8301 C.ar    1  UNL1        0.0343
     16 C          61.9193   94.1992    0.5659 C.3     1  UNL1        0.0928
     17 C          60.5213   93.9285    0.0946 C.3     1  UNL1        0.0179
     18 C          61.0010   93.3479    1.3918 C.3     1  UNL1        0.0315
     19 C          63.0935   94.1102    1.4951 C.2     1  UNL1        0.2293
     20 O          63.1365   93.3579    2.7921 O.2     1  UNL1       -0.2744
     21 N          64.2172   94.9057    0.8996 N.am    1  UNL1       -0.2839
     22 H          65.1124   95.0257    1.2914 H       1  UNL1        0.1549
     23 C          60.5272   95.8485   -4.7350 C.3     1  UNL1        0.2525
     24 O          61.4956   96.7860   -4.0766 O.3     1  UNL1       -0.4714
     25 C          60.4797   89.2945    7.2167 C.2     1  UNL1        0.0209
     26 C          60.0019   89.1279    8.6288 C.2     1  UNL1        0.0016
     27 C          60.7918   88.2952    9.5946 C.ar    1  UNL1        0.0000
     28 C          61.9034   88.9174   10.3865 C.ar    1  UNL1       -0.0003
     29 C          62.6934   88.0849   11.3524 C.ar    1  UNL1       -0.0029
     30 C          62.3717   86.6302   11.5262 C.ar    1  UNL1       -0.0061
     31 C          61.2600   86.0080   10.7343 C.ar    1  UNL1       -0.0029
     32 C          60.4701   86.8405    9.7685 C.ar    1  UNL1       -0.0003
     33 C          63.1617   85.7977   12.4921 C.3     1  UNL1        0.0991
     34 N          62.9645   84.3114   12.5371 N.3     1  UNL1       -0.2689
     35 C          63.2614   83.4784   11.3255 C.3     1  UNL1        0.0738
     36 C          63.7554   84.1318   10.0689 C.3     1  UNL1        0.0188
     37 C          63.0642   81.9921   11.3704 C.3     1  UNL1        0.0883
     38 N          62.5702   81.3388   12.6271 N.3     1  UNL1       -0.2692
     39 C          62.3731   79.8525   12.6720 C.3     1  UNL1        0.0897
     40 C          62.2734   82.1717   13.8387 C.3     1  UNL1        0.0883
     41 C          62.4705   83.6580   13.7937 C.3     1  UNL1        0.0738
     42 C          62.1736   84.4909   15.0054 C.3     1  UNL1        0.0188
@<TRIPOS>BOND
     1    23    24    1
     2    24    10    1
     3    10    11   ar
     4    11    12   ar
     5    12    13   ar
     6    13    14   ar
     7    14    15   ar
     8    14    16    1
     9    16    17    1
    10    17    18    1
    11    18     1    1
    12     1     2    2
    13     2     3    1
    14     3     4    2
    15     4     5    1
    16     5    25    1
    17    25    26    2
    18    26    27    1
    19    27    28   ar
    20    28    29   ar
    21    29    30   ar
    22    30    33    1
    23    33    34    1
    24    34    35    1
    25    35    36    1
    26    35    37    1
    27    37    38    1
    28    38    39    1
    29    38    40    1
    30    40    41    1
    31    41    42    1
    32    30    31   ar
    33    31    32   ar
    34     5     6    2
    35     6     7    1
    36     7     8    2
    37     8     9    1
    38    16    19    1
    39    19    20    2
    40    19    21   am
    41    15    10   ar
    42    18    16    1
    43     9     1    1
    44    21    13    1
    45     8     4    1
    46    32    27   ar
    47    41    34    1
    48    21    22    1
@<TRIPOS>MOLECULE
*****
 42 48 0 0 0
SMALL
GASTEIGER

@<TRIPOS>ATOM
      1 C          60.0228   88.7293    7.3220 C.2     1  UNL1       -0.0378
      2 C          60.9767   89.5253    6.4815 C.2     1  UNL1       -0.0080
      3 C          60.4539   90.5612    5.5309 C.2     1  UNL1        0.0022
      4 C          58.9774   90.8012    5.4208 C.2     1  UNL1        0.0350
      5 C          58.1743   91.7477    4.5786 C.2     1  UNL1        0.1040
      6 N          56.7241   91.5367    4.8987 N.2     1  UNL1       -0.1483
      7 N          56.6309   90.4598    5.9386 N.2     1  UNL1       -0.1520
      8 C          58.0235   90.0052    6.2613 C.2     1  UNL1        0.0860
      9 C          58.5461   88.9693    7.2119 C.3     1  UNL1        0.0697
     10 C          62.5377   84.2760   11.8668 C.ar    1  UNL1        0.1385
     11 C          63.1839   85.1209   12.9244 C.ar    1  UNL1        0.0382
     12 C          63.1632   86.6162   12.8061 C.ar    1  UNL1        0.0175
     13 C          62.4963   87.2663   11.6303 C.ar    1  UNL1        0.0469
     14 C          61.8501   86.4214   10.5728 C.ar    1  UNL1        0.0022
     15 C          61.8708   84.9262   10.6910 C.ar    1  UNL1        0.0343
     16 C          61.2728   87.3383    9.5355 C.3     1  UNL1        0.0928
     17 C          60.7233   86.2543    8.6563 C.3     1  UNL1        0.0179
     18 C          60.5454   87.6934    8.2726 C.3     1  UNL1        0.0315
     19 C          61.5623   88.7500    9.9519 C.2     1  UNL1        0.2293
     20 O          61.1653   89.9886    9.2049 O.2     1  UNL1       -0.2744
     21 N          62.3184   88.7055   11.2466 N.am    1  UNL1       -0.2839
     22 H          62.6413   89.4842   11.7553 H       1  UNL1        0.1549
     23 C          62.4377   82.1332   13.3326 C.3     1  UNL1        0.2525
     24 O          62.5584   82.7808   11.9850 O.3     1  UNL1       -0.4714
     25 C          58.7249   92.7323    3.5900 C.2     1  UNL1        0.0209
     26 C          60.1575   92.6378    3.1557 C.2     1  UNL1        0.0016
     27 C          60.7082   93.6224    2.1671 C.ar    1  UNL1        0.0000
     28 C          61.8738   93.2444    1.3020 C.ar    1  UNL1       -0.0003
     29 C          62.4245   94.2289    0.3133 C.ar    1  UNL1       -0.0029
     30 C          61.8095   95.5914    0.1898 C.ar    1  UNL1       -0.0061
     31 C          60.6439   95.9695    1.0550 C.ar    1  UNL1       -0.0029
     32 C          60.0932   94.9849    2.0436 C.ar    1  UNL1       -0.0003
     33 C          62.3602   96.5760   -0.7988 C.3     1  UNL1        0.0991
     34 N          62.8888   96.0978   -2.1186 N.3     1  UNL1       -0.2689
     35 C          61.9424   95.8141   -3.2473 C.3     1  UNL1        0.0738
     36 C          60.4674   96.0087   -3.0561 C.3     1  UNL1        0.0188
     37 C          62.4709   95.3359   -4.5671 C.3     1  UNL1        0.0883
     38 N          63.9460   95.1413   -4.7582 N.3     1  UNL1       -0.2692
     39 C          64.4745   94.6631   -6.0781 C.3     1  UNL1        0.0897
     40 C          64.8923   95.4250   -3.6296 C.3     1  UNL1        0.0883
     41 C          64.3638   95.9032   -2.3098 C.3     1  UNL1        0.0738
     42 C          65.3102   96.1868   -1.1812 C.3     1  UNL1        0.0188
@<TRIPOS>BOND
     1    23    24    1
     2    24    10    1
     3    10    11   ar
     4    11    12   ar
     5    12    13   ar
     6    13    14   ar
     7    14    15   ar
     8    14    16    1
     9    16    17    1
    10    17    18    1
    11    18     1    1
    12     1     2    2
    13     2     3    1
    14     3     4    2
    15     4     5    1
    16     5    25    1
    17    25    26    2
    18    26    27    1
    19    27    28   ar
    20    28    29   ar
    21    29    30   ar
    22    30    33    1
    23    33    34    1
    24    34    35    1
    25    35    36    1
    26    35    37    1
    27    37    38    1
    28    38    39    1
    29    38    40    1
    30    40    41    1
    31    41    42    1
    32    30    31   ar
    33    31    32   ar
    34     5     6    2
    35     6     7    1
    36     7     8    2
    37     8     9    1
    38    16    19    1
    39    19    20    2
    40    19    21   am
    41    15    10   ar
    42    18    16    1
    43     9     1    1
    44    21    13    1
    45     8     4    1
    46    32    27   ar
    47    41    34    1
    48    21    22    1
@<TRIPOS>MOLECULE
*****
 42 48 0 0 0
SMALL
GASTEIGER

@<TRIPOS>ATOM
      1 C          61.0676   92.3696    3.0188 C.2     1  UNL1       -0.0378
      2 C          61.8953   91.3464    3.7385 C.2     1  UNL1       -0.0080
      3 C          61.2823   90.5174    4.8280 C.2     1  UNL1        0.0022
      4 C          59.8417   90.7116    5.1979 C.2     1  UNL1        0.0350
      5 C          58.9699   90.0469    6.2216 C.2     1  UNL1        0.1040
      6 N          57.6033   90.6593    6.1347 N.2     1  UNL1       -0.1483
      7 N          57.6306   91.7025    5.0572 N.2     1  UNL1       -0.1520
      8 C          59.0140   91.7348    4.4782 C.2     1  UNL1        0.0860
      9 C          59.6269   92.5638    3.3887 C.3     1  UNL1        0.0697
     10 C          63.5617   96.0922   -2.1516 C.ar    1  UNL1        0.1385
     11 C          62.4990   96.0520   -3.2094 C.ar    1  UNL1        0.0382
     12 C          61.2293   95.2905   -2.9683 C.ar    1  UNL1        0.0175
     13 C          61.0225   94.5693   -1.6694 C.ar    1  UNL1        0.0469
     14 C          62.0852   94.6095   -0.6117 C.ar    1  UNL1        0.0022
     15 C          63.3549   95.3710   -0.8527 C.ar    1  UNL1        0.0343
     16 C          61.6029   93.8078    0.5608 C.3     1  UNL1        0.0928
     17 C          62.8196   94.0251    1.4106 C.3     1  UNL1        0.0179
     18 C          61.6805   93.1986    1.9293 C.3     1  UNL1        0.0315
     19 C          60.2420   93.2721    0.2276 C.2     1  UNL1        0.2293
     20 O          59.3895   92.4161    1.1166 O.2     1  UNL1       -0.2744
     21 N          59.8832   93.7427   -1.1508 N.am    1  UNL1       -0.2839
     22 H          59.0469   93.5440   -1.6307 H       1  UNL1        0.1549
     23 C          65.9134   96.8559   -1.3538 C.3     1  UNL1        0.2525
     24 O          64.8314   96.8537   -2.3927 O.3     1  UNL1       -0.4714
     25 C          59.3907   88.9606    7.1665 C.2     1  UNL1        0.0209
     26 C          60.5404   89.1852    8.1033 C.2     1  UNL1        0.0016
     27 C          60.9613   88.0988    9.0482 C.ar    1  UNL1        0.0000
     28 C          62.0348   87.1308    8.6476 C.ar    1  UNL1       -0.0003
     29 C          62.4558   86.0445    9.5924 C.ar    1  UNL1       -0.0029
     30 C          61.8032   85.9262   10.9378 C.ar    1  UNL1       -0.0061
     31 C          60.7297   86.8942   11.3384 C.ar    1  UNL1       -0.0029
     32 C          60.3087   87.9806   10.3936 C.ar    1  UNL1       -0.0003
     33 C          62.2242   84.8399   11.8826 C.3     1  UNL1        0.0991
     34 N          62.5840   85.1759   13.2994 N.3     1  UNL1       -0.2689
     35 C          62.3293   84.1821   14.3938 C.3     1  UNL1        0.0738
     36 C          61.7148   82.8523   14.0711 C.3     1  UNL1        0.0188
     37 C          62.6891   84.5181   15.8107 C.3     1  UNL1        0.0883
     38 N          63.3036   85.8479   16.1333 N.3     1  UNL1       -0.2692
     39 C          63.6634   86.1838   17.5502 C.3     1  UNL1        0.0897
     40 C          63.5583   86.8416   15.0390 C.3     1  UNL1        0.0883
     41 C          63.1985   86.5057   13.6221 C.3     1  UNL1        0.0738
     42 C          63.4533   87.4995   12.5278 C.3     1  UNL1        0.0188
@<TRIPOS>BOND
     1    23    24    1
     2    24    10    1
     3    10    11   ar
     4    11    12   ar
     5    12    13   ar
     6    13    14   ar
     7    14    15   ar
     8    14    16    1
     9    16    17    1
    10    17    18    1
    11    18     1    1
    12     1     2    2
    13     2     3    1
    14     3     4    2
    15     4     5    1
    16     5    25    1
    17    25    26    2
    18    26    27    1
    19    27    28   ar
    20    28    29   ar
    21    29    30   ar
    22    30    33    1
    23    33    34    1
    24    34    35    1
    25    35    36    1
    26    35    37    1
    27    37    38    1
    28    38    39    1
    29    38    40    1
    30    40    41    1
    31    41    42    1
    32    30    31   ar
    33    31    32   ar
    34     5     6    2
    35     6     7    1
    36     7     8    2
    37     8     9    1
    38    16    19    1
    39    19    20    2
    40    19    21   am
    41    15    10   ar
    42    18    16    1
    43     9     1    1
    44    21    13    1
    45     8     4    1
    46    32    27   ar
    47    41    34    1
    48    21    22    1
@<TRIPOS>MOLECULE
*****
 42 48 0 0 0
SMALL
GASTEIGER

@<TRIPOS>ATOM
      1 C          60.5169   92.5202    2.6065 C.2     1  UNL1       -0.0378
      2 C          61.7084   91.8952    3.2697 C.2     1  UNL1       -0.0080
      3 C          61.5375   91.1199    4.5424 C.2     1  UNL1        0.0022
      4 C          60.1752   90.9696    5.1519 C.2     1  UNL1        0.0350
      5 C          59.7015   90.2683    6.3904 C.2     1  UNL1        0.1040
      6 N          58.2173   90.4599    6.4926 N.2     1  UNL1       -0.1483
      7 N          57.7737   91.2796    5.3174 N.2     1  UNL1       -0.1520
      8 C          58.9837   91.5947    4.4888 C.2     1  UNL1        0.0860
      9 C          59.1546   92.3699    3.2161 C.3     1  UNL1        0.0697
     10 C          61.6400   96.1316   -3.0951 C.ar    1  UNL1        0.1385
     11 C          63.0556   96.6139   -2.9788 C.ar    1  UNL1        0.0382
     12 C          63.8726   96.2574   -1.7724 C.ar    1  UNL1        0.0175
     13 C          63.2741   95.4186   -0.6824 C.ar    1  UNL1        0.0469
     14 C          61.8585   94.9363   -0.7987 C.ar    1  UNL1        0.0022
     15 C          61.0414   95.2928   -2.0050 C.ar    1  UNL1        0.0343
     16 C          61.5411   94.1310    0.4263 C.3     1  UNL1        0.0928
     17 C          60.1303   93.8027    0.0370 C.3     1  UNL1        0.0179
     18 C          60.6877   93.2954    1.3338 C.3     1  UNL1        0.0315
     19 C          62.7606   94.1156    1.2997 C.2     1  UNL1        0.2293
     20 O          62.8868   93.4255    2.6255 O.2     1  UNL1       -0.2744
     21 N          63.8316   94.9113    0.6145 N.am    1  UNL1       -0.2839
     22 H          64.7409   95.0724    0.9560 H       1  UNL1        0.1549
     23 C          61.4444   96.4506   -5.6661 C.3     1  UNL1        0.2525
     24 O          60.8229   96.4881   -4.3014 O.3     1  UNL1       -0.4714
     25 C          60.5611   89.5087    7.3569 C.2     1  UNL1        0.0209
     26 C          59.9279   88.6157    8.3823 C.2     1  UNL1        0.0016
     27 C          60.7874   87.8561    9.3488 C.ar    1  UNL1        0.0000
     28 C          60.6528   86.3664    9.4617 C.ar    1  UNL1       -0.0003
     29 C          61.5123   85.6067   10.4282 C.ar    1  UNL1       -0.0029
     30 C          62.5064   86.3368   11.2818 C.ar    1  UNL1       -0.0061
     31 C          62.6411   87.8265   11.1689 C.ar    1  UNL1       -0.0029
     32 C          61.7816   88.5861   10.2024 C.ar    1  UNL1       -0.0003
     33 C          63.3659   85.5771   12.2483 C.3     1  UNL1        0.0991
     34 N          63.1955   85.7814   13.7244 N.3     1  UNL1       -0.2689
     35 C          62.6021   84.6926   14.5687 C.3     1  UNL1        0.0738
     36 C          62.1792   83.3997   13.9366 C.3     1  UNL1        0.0188
     37 C          62.4316   84.8968   16.0449 C.3     1  UNL1        0.0883
     38 N          62.8545   86.1898   16.6770 N.3     1  UNL1       -0.2692
     39 C          62.6841   86.3939   18.1532 C.3     1  UNL1        0.0897
     40 C          63.4479   87.2784   15.8328 C.3     1  UNL1        0.0883
     41 C          63.6184   87.0743   14.3566 C.3     1  UNL1        0.0738
     42 C          64.2117   88.1630   13.5125 C.3     1  UNL1        0.0188
@<TRIPOS>BOND
     1    23    24    1
     2    24    10    1
     3    10    11   ar
     4    11    12   ar
     5    12    13   ar
     6    13    14   ar
     7    14    15   ar
     8    14    16    1
     9    16    17    1
    10    17    18    1
    11    18     1    1
    12     1     2    2
    13     2     3    1
    14     3     4    2
    15     4     5    1
    16     5    25    1
    17    25    26    2
    18    26    27    1
    19    27    28   ar
    20    28    29   ar
    21    29    30   ar
    22    30    33    1
    23    33    34    1
    24    34    35    1
    25    35    36    1
    26    35    37    1
    27    37    38    1
    28    38    39    1
    29    38    40    1
    30    40    41    1
    31    41    42    1
    32    30    31   ar
    33    31    32   ar
    34     5     6    2
    35     6     7    1
    36     7     8    2
    37     8     9    1
    38    16    19    1
    39    19    20    2
    40    19    21   am
    41    15    10   ar
    42    18    16    1
    43     9     1    1
    44    21    13    1
    45     8     4    1
    46    32    27   ar
    47    41    34    1
    48    21    22    1
@<TRIPOS>MOLECULE
*****
 42 48 0 0 0
SMALL
GASTEIGER

@<TRIPOS>ATOM
      1 C          61.0420   87.5565    9.4700 C.2     1  UNL1       -0.0378
      2 C          61.9138   88.6607    8.9498 C.2     1  UNL1       -0.0080
      3 C          61.4118   89.5633    7.8620 C.2     1  UNL1        0.0022
      4 C          60.0381   89.3617    7.2944 C.2     1  UNL1        0.0350
      5 C          59.2776   90.0878    6.2246 C.2     1  UNL1        0.1040
      6 N          57.9358   89.4324    6.0836 N.2     1  UNL1       -0.1483
      7 N          57.8670   88.3012    7.0663 N.2     1  UNL1       -0.1520
      8 C          59.1663   88.2575    7.8146 C.2     1  UNL1        0.0860
      9 C          59.6682   87.3549    8.9024 C.3     1  UNL1        0.0697
     10 C          63.4989   83.2387   14.1745 C.ar    1  UNL1        0.1385
     11 C          64.2873   82.2248   13.3996 C.ar    1  UNL1        0.0382
     12 C          64.3822   82.3305   11.9063 C.ar    1  UNL1        0.0175
     13 C          63.6887   83.4500   11.1881 C.ar    1  UNL1        0.0469
     14 C          62.9004   84.4638   11.9630 C.ar    1  UNL1        0.0022
     15 C          62.8054   84.3583   13.4563 C.ar    1  UNL1        0.0343
     16 C          62.3281   85.4498   10.9882 C.3     1  UNL1        0.0928
     17 C          61.6289   86.2945   12.0116 C.3     1  UNL1        0.0179
     18 C          61.5438   86.6538   10.5578 C.3     1  UNL1        0.0315
     19 C          62.7628   85.0453    9.6107 C.2     1  UNL1        0.2293
     20 O          62.4173   85.7526    8.3338 O.2     1  UNL1       -0.2744
     21 N          63.6037   83.8094    9.7342 N.am    1  UNL1       -0.2839
     22 H          64.0258   83.3199    8.9915 H       1  UNL1        0.1549
     23 C          62.7547   84.2307   16.4575 C.3     1  UNL1        0.2525
     24 O          63.4040   83.1331   15.6678 O.3     1  UNL1       -0.4714
     25 C          59.7722   91.2631    5.4345 C.2     1  UNL1        0.0209
     26 C          60.5007   91.0446    4.1417 C.2     1  UNL1        0.0016
     27 C          60.9953   92.2198    3.3515 C.ar    1  UNL1        0.0000
     28 C          60.0635   93.3487    3.0236 C.ar    1  UNL1       -0.0003
     29 C          60.5580   94.5239    2.2334 C.ar    1  UNL1       -0.0029
     30 C          61.9843   94.5702    1.7713 C.ar    1  UNL1       -0.0061
     31 C          62.9160   93.4413    2.0992 C.ar    1  UNL1       -0.0029
     32 C          62.4215   92.2661    2.8893 C.ar    1  UNL1       -0.0003
     33 C          62.4788   95.7454    0.9811 C.3     1  UNL1        0.0991
     34 N          62.7647   95.5975   -0.4838 N.3     1  UNL1       -0.2689
     35 C          64.1686   95.3544   -0.9532 C.3     1  UNL1        0.0738
     36 C          65.2864   95.2594    0.0425 C.3     1  UNL1        0.0188
     37 C          64.4546   95.2065   -2.4182 C.3     1  UNL1        0.0883
     38 N          63.3368   95.3015   -3.4140 N.3     1  UNL1       -0.2692
     39 C          63.6228   95.1536   -4.8790 C.3     1  UNL1        0.0897
     40 C          61.9330   95.5446   -2.9446 C.3     1  UNL1        0.0883
     41 C          61.6470   95.6925   -1.4796 C.3     1  UNL1        0.0738
     42 C          60.2431   95.9355   -1.0104 C.3     1  UNL1        0.0188
@<TRIPOS>BOND
     1    23    24    1
     2    24    10    1
     3    10    11   ar
     4    11    12   ar
     5    12    13   ar
     6    13    14   ar
     7    14    15   ar
     8    14    16    1
     9    16    17    1
    10    17    18    1
    11    18     1    1
    12     1     2    2
    13     2     3    1
    14     3     4    2
    15     4     5    1
    16     5    25    1
    17    25    26    2
    18    26    27    1
    19    27    28   ar
    20    28    29   ar
    21    29    30   ar
    22    30    33    1
    23    33    34    1
    24    34    35    1
    25    35    36    1
    26    35    37    1
    27    37    38    1
    28    38    39    1
    29    38    40    1
    30    40    41    1
    31    41    42    1
    32    30    31   ar
    33    31    32   ar
    34     5     6    2
    35     6     7    1
    36     7     8    2
    37     8     9    1
    38    16    19    1
    39    19    20    2
    40    19    21   am
    41    15    10   ar
    42    18    16    1
    43     9     1    1
    44    21    13    1
    45     8     4    1
    46    32    27   ar
    47    41    34    1
    48    21    22    1
@<TRIPOS>MOLECULE
*****
 42 48 0 0 0
SMALL
GASTEIGER

@<TRIPOS>ATOM
      1 C          61.0457   87.5641    9.4663 C.2     1  UNL1       -0.0378
      2 C          61.9009   88.6839    8.9517 C.2     1  UNL1       -0.0080
      3 C          61.3933   89.5721    7.8547 C.2     1  UNL1        0.0022
      4 C          60.0305   89.3407    7.2723 C.2     1  UNL1        0.0350
      5 C          59.2677   90.0473    6.1912 C.2     1  UNL1        0.1040
      6 N          57.9411   89.3643    6.0376 N.2     1  UNL1       -0.1483
      7 N          57.8840   88.2356    7.0238 N.2     1  UNL1       -0.1520
      8 C          59.1753   88.2209    7.7869 C.2     1  UNL1        0.0860
      9 C          59.6828   87.3327    8.8839 C.3     1  UNL1        0.0697
     10 C          63.5265   83.3080   14.2142 C.ar    1  UNL1        0.1385
     11 C          64.3082   82.2822   13.4483 C.ar    1  UNL1        0.0382
     12 C          64.3935   82.3670   11.9531 C.ar    1  UNL1        0.0175
     13 C          63.6972   83.4775   11.2239 C.ar    1  UNL1        0.0469
     14 C          62.9155   84.5033   11.9898 C.ar    1  UNL1        0.0022
     15 C          62.8301   84.4186   13.4850 C.ar    1  UNL1        0.0343
     16 C          62.3384   85.4766   11.0051 C.3     1  UNL1        0.0928
     17 C          61.6472   86.3365   12.0213 C.3     1  UNL1        0.0179
     18 C          61.5532   86.6759   10.5632 C.3     1  UNL1        0.0315
     19 C          62.7635   85.0523    9.6306 C.2     1  UNL1        0.2293
     20 O          62.4108   85.7424    8.3463 O.2     1  UNL1       -0.2744
     21 N          63.6033   83.8168    9.7658 N.am    1  UNL1       -0.2839
     22 H          64.0197   83.3165    9.0272 H       1  UNL1        0.1549
     23 C          62.6943   84.2723   16.4786 C.3     1  UNL1        0.2525
     24 O          63.4411   83.2233   15.7094 O.3     1  UNL1       -0.4714
     25 C          59.7474   91.2294    5.4022 C.2     1  UNL1        0.0209
     26 C          60.4972   91.0210    4.1199 C.2     1  UNL1        0.0016
     27 C          60.9770   92.2031    3.3308 C.ar    1  UNL1        0.0000
     28 C          62.3926   92.2507    2.8372 C.ar    1  UNL1       -0.0003
     29 C          62.8724   93.4327    2.0482 C.ar    1  UNL1       -0.0029
     30 C          61.9365   94.5671    1.7528 C.ar    1  UNL1       -0.0061
     31 C          60.5209   94.5195    2.2464 C.ar    1  UNL1       -0.0029
     32 C          60.0411   93.3374    3.0354 C.ar    1  UNL1       -0.0003
     33 C          62.4163   95.7491    0.9637 C.3     1  UNL1        0.0991
     34 N          62.7509   95.5945   -0.4902 N.3     1  UNL1       -0.2689
     35 C          61.6570   95.6026   -1.5166 C.3     1  UNL1        0.0738
     36 C          60.2285   95.7652   -1.0888 C.3     1  UNL1        0.0188
     37 C          61.9915   95.4480   -2.9706 C.3     1  UNL1        0.0883
     38 N          63.4201   95.2854   -3.3983 N.3     1  UNL1       -0.2692
     39 C          63.7546   95.1308   -4.8523 C.3     1  UNL1        0.0897
     40 C          64.5139   95.2773   -2.3720 C.3     1  UNL1        0.0883
     41 C          64.1794   95.4319   -0.9180 C.3     1  UNL1        0.0738
     42 C          65.2734   95.4238    0.1082 C.3     1  UNL1        0.0188
@<TRIPOS>BOND
     1    23    24    1
     2    24    10    1
     3    10    11   ar
     4    11    12   ar
     5    12    13   ar
     6    13    14   ar
     7    14    15   ar
     8    14    16    1
     9    16    17    1
    10    17    18    1
    11    18     1    1
    12     1     2    2
    13     2     3    1
    14     3     4    2
    15     4     5    1
    16     5    25    1
    17    25    26    2
    18    26    27    1
    19    27    28   ar
    20    28    29   ar
    21    29    30   ar
    22    30    33    1
    23    33    34    1
    24    34    35    1
    25    35    36    1
    26    35    37    1
    27    37    38    1
    28    38    39    1
    29    38    40    1
    30    40    41    1
    31    41    42    1
    32    30    31   ar
    33    31    32   ar
    34     5     6    2
    35     6     7    1
    36     7     8    2
    37     8     9    1
    38    16    19    1
    39    19    20    2
    40    19    21   am
    41    15    10   ar
    42    18    16    1
    43     9     1    1
    44    21    13    1
    45     8     4    1
    46    32    27   ar
    47    41    34    1
    48    21    22    1
@<TRIPOS>MOLECULE
*****
 42 48 0 0 0
SMALL
GASTEIGER

@<TRIPOS>ATOM
      1 C          61.2691   86.8184    9.6135 C.2     1  UNL1       -0.0378
      2 C          62.1528   87.8855    9.0387 C.2     1  UNL1       -0.0080
      3 C          61.5980   88.8652    8.0475 C.2     1  UNL1        0.0022
      4 C          60.1597   88.7777    7.6310 C.2     1  UNL1        0.0350
      5 C          59.3384   89.5974    6.6804 C.2     1  UNL1        0.1040
      6 N          57.9471   89.0369    6.6677 N.2     1  UNL1       -0.1483
      7 N          57.9086   87.8708    7.6104 N.2     1  UNL1       -0.1520
      8 C          59.2760   87.7106    8.2058 C.2     1  UNL1        0.0860
      9 C          59.8307   86.7309    9.1970 C.3     1  UNL1        0.0697
     10 C          63.9255   82.6337   14.3298 C.ar    1  UNL1        0.1385
     11 C          64.5612   83.5401   15.3419 C.ar    1  UNL1        0.0382
     12 C          64.5050   85.0276   15.1565 C.ar    1  UNL1        0.0175
     13 C          63.8130   85.6085   13.9592 C.ar    1  UNL1        0.0469
     14 C          63.1773   84.7021   12.9471 C.ar    1  UNL1        0.0022
     15 C          63.2336   83.2146   13.1324 C.ar    1  UNL1        0.0343
     16 C          62.5701   85.5578   11.8752 C.3     1  UNL1        0.0928
     17 C          62.0381   84.4229   11.0512 C.3     1  UNL1        0.0179
     18 C          61.8237   85.8387   10.6047 C.3     1  UNL1        0.0315
     19 C          62.8305   86.9930   12.2247 C.2     1  UNL1        0.2293
     20 O          62.3986   88.1873   11.4265 O.2     1  UNL1       -0.2744
     21 N          63.5987   87.0245   13.5127 N.am    1  UNL1       -0.2839
     22 H          63.9079   87.8325   13.9825 H       1  UNL1        0.1549
     23 C          63.0224   80.2615   13.7755 C.3     1  UNL1        0.2525
     24 O          63.9818   81.1462   14.5151 O.3     1  UNL1       -0.4714
     25 C          59.8232   90.7715    5.8827 C.2     1  UNL1        0.0209
     26 C          60.5051   90.5525    4.5647 C.2     1  UNL1        0.0016
     27 C          60.9900   91.7266    3.7668 C.ar    1  UNL1        0.0000
     28 C          60.0468   92.8413    3.4240 C.ar    1  UNL1       -0.0003
     29 C          60.5316   94.0154    2.6262 C.ar    1  UNL1       -0.0029
     30 C          61.9597   94.0746    2.1712 C.ar    1  UNL1       -0.0061
     31 C          62.9029   92.9599    2.5141 C.ar    1  UNL1       -0.0029
     32 C          62.4181   91.7858    3.3119 C.ar    1  UNL1       -0.0003
     33 C          62.4445   95.2487    1.3734 C.3     1  UNL1        0.0991
     34 N          62.6200   95.1257   -0.1112 N.3     1  UNL1       -0.2689
     35 C          61.4581   95.3739   -1.0269 C.3     1  UNL1        0.0738
     36 C          60.1208   95.7451   -0.4579 C.3     1  UNL1        0.0188
     37 C          61.6335   95.2509   -2.5115 C.3     1  UNL1        0.0883
     38 N          62.9709   94.8796   -3.0804 N.3     1  UNL1       -0.2692
     39 C          63.1463   94.7566   -4.5651 C.3     1  UNL1        0.0897
     40 C          64.1327   94.6314   -2.1648 C.3     1  UNL1        0.0883
     41 C          63.9573   94.7544   -0.6802 C.3     1  UNL1        0.0738
     42 C          65.1192   94.5062    0.2354 C.3     1  UNL1        0.0188
@<TRIPOS>BOND
     1    23    24    1
     2    24    10    1
     3    10    11   ar
     4    11    12   ar
     5    12    13   ar
     6    13    14   ar
     7    14    15   ar
     8    14    16    1
     9    16    17    1
    10    17    18    1
    11    18     1    1
    12     1     2    2
    13     2     3    1
    14     3     4    2
    15     4     5    1
    16     5    25    1
    17    25    26    2
    18    26    27    1
    19    27    28   ar
    20    28    29   ar
    21    29    30   ar
    22    30    33    1
    23    33    34    1
    24    34    35    1
    25    35    36    1
    26    35    37    1
    27    37    38    1
    28    38    39    1
    29    38    40    1
    30    40    41    1
    31    41    42    1
    32    30    31   ar
    33    31    32   ar
    34     5     6    2
    35     6     7    1
    36     7     8    2
    37     8     9    1
    38    16    19    1
    39    19    20    2
    40    19    21   am
    41    15    10   ar
    42    18    16    1
    43     9     1    1
    44    21    13    1
    45     8     4    1
    46    32    27   ar
    47    41    34    1
    48    21    22    1
