@<TRIPOS>MOLECULE
*****
 43 47 0 0 0
SMALL
GASTEIGER

@<TRIPOS>ATOM
      1 C          59.9342   89.8350    6.8112 C.2     1  UNL1        0.2461
      2 O          58.5371   89.4187    6.4578 O.2     1  UNL1       -0.2701
      3 N          60.6422   90.8651    5.9821 N.am    1  UNL1       -0.2964
      4 H          61.5592   91.1383    6.2140 H       1  UNL1        0.1501
      5 C          61.4634   84.4890    8.7794 C.3     1  UNL1        0.1305
      6 N          61.7999   85.6952    9.6051 N.ar    1  UNL1       -0.3242
      7 C          62.5098   85.6891   10.9264 C.ar    1  UNL1        0.0738
      8 C          62.6342   87.1095   11.3923 C.ar    1  UNL1       -0.0038
      9 C          62.0013   87.9934   10.3588 C.ar    1  UNL1        0.0133
     10 C          61.8280   89.4813   10.2809 C.ar    1  UNL1        0.0013
     11 C          61.1389   90.0951    9.0984 C.ar    1  UNL1        0.0046
     12 C          60.6233   89.2211    7.9938 C.ar    1  UNL1        0.0548
     13 C          60.7967   87.7332    8.0717 C.ar    1  UNL1        0.0217
     14 C          61.4857   87.1194    9.2542 C.ar    1  UNL1        0.0598
     15 C          63.0077   84.4756   11.6542 C.ar    1  UNL1        0.0967
     16 C          64.1207   83.6560   11.0718 C.ar    1  UNL1        0.0206
     17 C          64.6186   82.4425   11.7995 C.ar    1  UNL1        0.0032
     18 C          64.0035   82.0487   13.1097 C.ar    1  UNL1        0.0207
     19 C          62.8905   82.8684   13.6921 C.ar    1  UNL1        0.0989
     20 N          62.3926   84.0819   12.9643 N.ar    1  UNL1       -0.2424
     21 C          63.2785   87.5658   12.6677 C.3     1  UNL1        0.0238
     22 C          63.7662   86.6797   13.7753 C.3     1  UNL1        0.0044
     23 C          64.3373   87.5546   14.8517 C.3     1  UNL1        0.0003
     24 C          64.2026   88.9815   14.4091 C.3     1  UNL1        0.0003
     25 C          63.5482   88.9884   13.0593 C.3     1  UNL1        0.0044
     26 C          59.9532   91.4790    4.7995 C.3     1  UNL1        0.1262
     27 C          58.6490   91.4407    5.5395 C.3     1  UNL1        0.0290
     28 C          61.2573   91.5172    4.0595 C.3     1  UNL1        0.0290
     29 C          59.2642   92.0928    3.6170 C.2     1  UNL1        0.2419
     30 O          57.7690   92.2109    3.5981 O.2     1  UNL1       -0.2731
     31 N          60.0704   92.5886    2.4532 N.am    1  UNL1       -0.2826
     32 H          61.0518   92.5111    2.4656 H       1  UNL1        0.1549
     33 C          59.3814   93.2025    1.2707 C.ar    1  UNL1        0.0503
     34 C          59.4947   94.6769    1.0187 C.ar    1  UNL1        0.0147
     35 C          58.8057   95.2907   -0.1638 C.ar    1  UNL1        0.0013
     36 C          58.0034   94.4303   -1.0944 C.ar    1  UNL1        0.0001
     37 C          57.8901   92.9559   -0.8425 C.ar    1  UNL1        0.0013
     38 C          58.5792   92.3420    0.3401 C.ar    1  UNL1        0.0147
     39 C          57.3144   95.0441   -2.2769 C.2     1  UNL1        0.0012
     40 C          56.0165   94.4746   -2.7677 C.2     1  UNL1        0.0151
     41 C          55.3275   95.0885   -3.9503 C.2     1  UNL1        0.0729
     42 O          54.5254   96.3448   -3.7821 O.co2   1  UNL1       -0.5446
     43 O          55.4406   94.4461   -5.3010 O.co2   1  UNL1       -0.5446
@<TRIPOS>UNITY_ATOM_ATTR
42 1
charge -1
@<TRIPOS>BOND
     1     5     6    1
     2     6     7   ar
     3     7    15    1
     4    15    16   ar
     5    16    17   ar
     6    17    18   ar
     7    18    19   ar
     8    19    20   ar
     9     7     8   ar
    10     8    21    1
    11    21    22    1
    12    22    23    1
    13    23    24    1
    14    24    25    1
    15     8     9   ar
    16     9    10   ar
    17    10    11   ar
    18    11    12   ar
    19    12     1    1
    20     1     2    2
    21     1     3   am
    22     3    26    1
    23    26    27    1
    24    26    28    1
    25    26    29    1
    26    29    30    2
    27    29    31   am
    28    31    33    1
    29    33    34   ar
    30    34    35   ar
    31    35    36   ar
    32    36    39    1
    33    39    40    2
    34    40    41    1
    35    41    42   ar
    36    41    43   ar
    37    36    37   ar
    38    37    38   ar
    39    12    13   ar
    40    13    14   ar
    41    14     6   ar
    42    20    15   ar
    43    25    21    1
    44    14     9   ar
    45    38    33   ar
    46     3     4    1
    47    31    32    1
@<TRIPOS>MOLECULE
*****
 43 47 0 0 0
SMALL
GASTEIGER

@<TRIPOS>ATOM
      1 C          60.1792   92.1799    1.3575 C.2     1  UNL1        0.2461
      2 O          61.2968   91.1803    1.3159 O.2     1  UNL1       -0.2701
      3 N          59.4600   92.4477    2.6463 N.am    1  UNL1       -0.2964
      4 H          58.7265   93.1038    2.6736 H       1  UNL1        0.1501
      5 C          55.2605   93.6997   -1.5214 C.3     1  UNL1        0.1305
      6 N          56.5911   94.0966   -2.0887 N.ar    1  UNL1       -0.3242
      7 C          56.8149   94.8669   -3.3562 C.ar    1  UNL1        0.0738
      8 C          58.2937   95.0392   -3.5389 C.ar    1  UNL1       -0.0038
      9 C          58.9839   94.3754   -2.3843 C.ar    1  UNL1        0.0133
     10 C          60.4346   94.2261   -2.0333 C.ar    1  UNL1        0.0013
     11 C          60.8330   93.4943   -0.7861 C.ar    1  UNL1        0.0046
     12 C          59.7807   92.9118    0.1102 C.ar    1  UNL1        0.0548
     13 C          58.3300   93.0610   -0.2408 C.ar    1  UNL1        0.0217
     14 C          57.9316   93.7928   -1.4880 C.ar    1  UNL1        0.0598
     15 C          55.7473   95.3756   -4.2790 C.ar    1  UNL1        0.0967
     16 C          54.7214   96.3472   -3.7756 C.ar    1  UNL1        0.0206
     17 C          53.6539   96.8559   -4.6984 C.ar    1  UNL1        0.0032
     18 C          53.6121   96.3929   -6.1245 C.ar    1  UNL1        0.0207
     19 C          54.6380   95.4212   -6.6278 C.ar    1  UNL1        0.0989
     20 N          55.7056   94.9126   -5.7051 N.ar    1  UNL1       -0.2424
     21 C          58.9646   95.7504   -4.6764 C.3     1  UNL1        0.0238
     22 C          60.4087   96.1514   -4.7367 C.3     1  UNL1        0.0044
     23 C          60.6459   96.8344   -6.0510 C.3     1  UNL1        0.0003
     24 C          59.3481   96.8555   -6.8030 C.3     1  UNL1        0.0003
     25 C          58.3091   96.1856   -5.9535 C.3     1  UNL1        0.0044
     26 C          59.8585   91.7159    3.8936 C.3     1  UNL1        0.1262
     27 C          58.4181   91.6294    4.3031 C.3     1  UNL1        0.0290
     28 C          61.2989   91.8023    3.4841 C.3     1  UNL1        0.0290
     29 C          60.2570   90.9841    5.1409 C.2     1  UNL1        0.2419
     30 O          61.6423   91.1432    5.6935 O.2     1  UNL1       -0.2731
     31 N          59.2701   90.0932    5.8354 N.am    1  UNL1       -0.2826
     32 H          58.3609   89.9888    5.4727 H       1  UNL1        0.1549
     33 C          59.6686   89.3614    7.0827 C.ar    1  UNL1        0.0503
     34 C          59.4390   87.8830    7.1906 C.ar    1  UNL1        0.0147
     35 C          59.8375   87.1512    8.4378 C.ar    1  UNL1        0.0013
     36 C          60.4656   87.8977    9.5772 C.ar    1  UNL1        0.0001
     37 C          60.6951   89.3761    9.4693 C.ar    1  UNL1        0.0013
     38 C          60.2966   90.1080    8.2221 C.ar    1  UNL1        0.0147
     39 C          60.8641   87.1659   10.8244 C.2     1  UNL1        0.0012
     40 C          62.1232   86.3510   10.8460 C.2     1  UNL1        0.0151
     41 C          62.5217   85.6192   12.0933 C.2     1  UNL1        0.0729
     42 O          62.2390   84.1520   12.2247 O.co2   1  UNL1       -0.5446
     43 O          63.2028   86.3547   13.2092 O.co2   1  UNL1       -0.5446
@<TRIPOS>UNITY_ATOM_ATTR
42 1
charge -1
@<TRIPOS>BOND
     1     5     6    1
     2     6     7   ar
     3     7    15    1
     4    15    16   ar
     5    16    17   ar
     6    17    18   ar
     7    18    19   ar
     8    19    20   ar
     9     7     8   ar
    10     8    21    1
    11    21    22    1
    12    22    23    1
    13    23    24    1
    14    24    25    1
    15     8     9   ar
    16     9    10   ar
    17    10    11   ar
    18    11    12   ar
    19    12     1    1
    20     1     2    2
    21     1     3   am
    22     3    26    1
    23    26    27    1
    24    26    28    1
    25    26    29    1
    26    29    30    2
    27    29    31   am
    28    31    33    1
    29    33    34   ar
    30    34    35   ar
    31    35    36   ar
    32    36    39    1
    33    39    40    2
    34    40    41    1
    35    41    42   ar
    36    41    43   ar
    37    36    37   ar
    38    37    38   ar
    39    12    13   ar
    40    13    14   ar
    41    14     6   ar
    42    20    15   ar
    43    25    21    1
    44    14     9   ar
    45    38    33   ar
    46     3     4    1
    47    31    32    1
@<TRIPOS>MOLECULE
*****
 43 47 0 0 0
SMALL
GASTEIGER

@<TRIPOS>ATOM
      1 C          60.4125   92.3533    2.4192 C.2     1  UNL1        0.2461
      2 O          61.8534   92.3768    2.8352 O.2     1  UNL1       -0.2701
      3 N          59.3901   91.6903    3.2938 N.am    1  UNL1       -0.2964
      4 H          58.4443   91.6749    3.0208 H       1  UNL1        0.1501
      5 C          62.8377   94.0872   -2.6704 C.3     1  UNL1        0.1305
      6 N          61.3652   94.2806   -2.4595 N.ar    1  UNL1       -0.3242
      7 C          60.4068   94.8900   -3.4394 C.ar    1  UNL1        0.0738
      8 C          59.0419   94.8846   -2.8172 C.ar    1  UNL1       -0.0038
      9 C          59.1568   94.2719   -1.4528 C.ar    1  UNL1        0.0133
     10 C          58.1395   94.0056   -0.3832 C.ar    1  UNL1        0.0013
     11 C          58.5580   93.3661    0.9074 C.ar    1  UNL1        0.0046
     12 C          59.9939   92.9929    1.1284 C.ar    1  UNL1        0.0548
     13 C          61.0113   93.2591    0.0588 C.ar    1  UNL1        0.0217
     14 C          60.5927   93.8986   -1.2318 C.ar    1  UNL1        0.0598
     15 C          60.7525   95.4129   -4.8021 C.ar    1  UNL1        0.0967
     16 C          59.9258   95.0168   -5.9894 C.ar    1  UNL1        0.0206
     17 C          60.2715   95.5398   -7.3521 C.ar    1  UNL1        0.0032
     18 C          61.4439   96.4588   -7.5275 C.ar    1  UNL1        0.0207
     19 C          62.2706   96.8549   -6.3403 C.ar    1  UNL1        0.0989
     20 N          61.9249   96.3319   -4.9775 N.ar    1  UNL1       -0.2424
     21 C          57.7831   95.4012   -3.4485 C.3     1  UNL1        0.0238
     22 C          56.4979   94.6431   -3.6011 C.3     1  UNL1        0.0044
     23 C          55.5089   95.5399   -4.2850 C.3     1  UNL1        0.0003
     24 C          56.1831   96.8524   -4.5550 C.3     1  UNL1        0.0003
     25 C          57.5886   96.7667   -4.0380 C.3     1  UNL1        0.0044
     26 C          59.8086   91.0508    4.5845 C.3     1  UNL1        0.1262
     27 C          58.4293   91.2599    5.1355 C.3     1  UNL1        0.0290
     28 C          61.1879   90.8416    4.0336 C.3     1  UNL1        0.0290
     29 C          60.2272   90.4113    5.8752 C.2     1  UNL1        0.2419
     30 O          61.4425   90.9095    6.5995 O.2     1  UNL1       -0.2731
     31 N          59.4304   89.2735    6.4415 N.am    1  UNL1       -0.2826
     32 H          58.6327   88.9465    5.9660 H       1  UNL1        0.1549
     33 C          59.8490   88.6340    7.7321 C.ar    1  UNL1        0.0503
     34 C          60.1745   87.1703    7.7729 C.ar    1  UNL1        0.0147
     35 C          60.5931   86.5308    9.0636 C.ar    1  UNL1        0.0013
     36 C          60.6861   87.3549   10.3134 C.ar    1  UNL1        0.0001
     37 C          60.3606   88.8186   10.2726 C.ar    1  UNL1        0.0013
     38 C          59.9420   89.4582    8.9820 C.ar    1  UNL1        0.0147
     39 C          61.1047   86.7154   11.6041 C.2     1  UNL1        0.0012
     40 C          62.1920   85.6821   11.6111 C.2     1  UNL1        0.0151
     41 C          62.6105   85.0426   12.9018 C.2     1  UNL1        0.0729
     42 O          62.4141   83.5699   13.1075 O.co2   1  UNL1       -0.5446
     43 O          63.2256   85.8759   13.9869 O.co2   1  UNL1       -0.5446
@<TRIPOS>UNITY_ATOM_ATTR
42 1
charge -1
@<TRIPOS>BOND
     1     5     6    1
     2     6     7   ar
     3     7    15    1
     4    15    16   ar
     5    16    17   ar
     6    17    18   ar
     7    18    19   ar
     8    19    20   ar
     9     7     8   ar
    10     8    21    1
    11    21    22    1
    12    22    23    1
    13    23    24    1
    14    24    25    1
    15     8     9   ar
    16     9    10   ar
    17    10    11   ar
    18    11    12   ar
    19    12     1    1
    20     1     2    2
    21     1     3   am
    22     3    26    1
    23    26    27    1
    24    26    28    1
    25    26    29    1
    26    29    30    2
    27    29    31   am
    28    31    33    1
    29    33    34   ar
    30    34    35   ar
    31    35    36   ar
    32    36    39    1
    33    39    40    2
    34    40    41    1
    35    41    42   ar
    36    41    43   ar
    37    36    37   ar
    38    37    38   ar
    39    12    13   ar
    40    13    14   ar
    41    14     6   ar
    42    20    15   ar
    43    25    21    1
    44    14     9   ar
    45    38    33   ar
    46     3     4    1
    47    31    32    1
@<TRIPOS>MOLECULE
*****
 43 47 0 0 0
SMALL
GASTEIGER

@<TRIPOS>ATOM
      1 C          60.6119   90.7635    5.1375 C.2     1  UNL1        0.2461
      2 O          62.0406   90.5336    5.5324 O.2     1  UNL1       -0.2701
      3 N          59.5041   90.1414    5.9347 N.am    1  UNL1       -0.2964
      4 H          58.5664   90.2923    5.6755 H       1  UNL1        0.1501
      5 C          63.4344   93.4542    0.7119 C.3     1  UNL1        0.1305
      6 N          61.9414   93.5680    0.8026 N.ar    1  UNL1       -0.3242
      7 C          61.0553   94.3200   -0.1457 C.ar    1  UNL1        0.0738
      8 C          59.6388   94.1665    0.3232 C.ar    1  UNL1       -0.0038
      9 C          59.6494   93.3196    1.5612 C.ar    1  UNL1        0.0133
     10 C          58.5471   92.8375    2.4569 C.ar    1  UNL1        0.0013
     11 C          58.8679   91.9855    3.6490 C.ar    1  UNL1        0.0046
     12 C          60.2911   91.6156    3.9453 C.ar    1  UNL1        0.0548
     13 C          61.3934   92.0977    3.0496 C.ar    1  UNL1        0.0217
     14 C          61.0726   92.9497    1.8575 C.ar    1  UNL1        0.0598
     15 C          61.5065   95.0903   -1.3511 C.ar    1  UNL1        0.0967
     16 C          60.8418   94.8654   -2.6769 C.ar    1  UNL1        0.0206
     17 C          61.2930   95.6357   -3.8823 C.ar    1  UNL1        0.0032
     18 C          62.4089   96.6309   -3.7620 C.ar    1  UNL1        0.0207
     19 C          63.0735   96.8557   -2.4363 C.ar    1  UNL1        0.0989
     20 N          62.6223   96.0854   -1.2308 N.ar    1  UNL1       -0.2424
     21 C          58.4247   94.7563   -0.3311 C.3     1  UNL1        0.0238
     22 C          57.3186   93.9885   -0.9922 C.3     1  UNL1        0.0044
     23 C          56.3138   94.9751   -1.5089 C.3     1  UNL1        0.0003
     24 C          56.7990   96.3528   -1.1671 C.3     1  UNL1        0.0003
     25 C          58.1035   96.2175   -0.4393 C.3     1  UNL1        0.0044
     26 C          59.8249   89.2894    7.1268 C.3     1  UNL1        0.1262
     27 C          59.5186   88.0570    6.3285 C.3     1  UNL1        0.0290
     28 C          60.1312   90.5217    7.9252 C.3     1  UNL1        0.0290
     29 C          60.1457   88.4374    8.3190 C.2     1  UNL1        0.2419
     30 O          59.0530   88.0184    9.2572 O.2     1  UNL1       -0.2731
     31 N          61.5592   88.0045    8.5729 N.am    1  UNL1       -0.2826
     32 H          62.2764   88.2795    7.9571 H       1  UNL1        0.1549
     33 C          61.8800   87.1525    9.7650 C.ar    1  UNL1        0.0503
     34 C          62.3498   87.7909   11.0385 C.ar    1  UNL1        0.0147
     35 C          62.6706   86.9389   12.2306 C.ar    1  UNL1        0.0013
     36 C          62.5217   85.4486   12.1493 C.ar    1  UNL1        0.0001
     37 C          62.0520   84.8102   10.8758 C.ar    1  UNL1        0.0013
     38 C          61.7311   85.6621    9.6836 C.ar    1  UNL1        0.0147
     39 C          62.8425   84.5966   13.3414 C.2     1  UNL1        0.0012
     40 C          63.2452   83.1640   13.1529 C.2     1  UNL1        0.0151
     41 C          63.5660   82.3120   14.3451 C.2     1  UNL1        0.0729
     42 O          63.5643   80.8172   14.2210 O.co2   1  UNL1       -0.5446
     43 O          63.8886   82.9550   15.6614 O.co2   1  UNL1       -0.5446
@<TRIPOS>UNITY_ATOM_ATTR
42 1
charge -1
@<TRIPOS>BOND
     1     5     6    1
     2     6     7   ar
     3     7    15    1
     4    15    16   ar
     5    16    17   ar
     6    17    18   ar
     7    18    19   ar
     8    19    20   ar
     9     7     8   ar
    10     8    21    1
    11    21    22    1
    12    22    23    1
    13    23    24    1
    14    24    25    1
    15     8     9   ar
    16     9    10   ar
    17    10    11   ar
    18    11    12   ar
    19    12     1    1
    20     1     2    2
    21     1     3   am
    22     3    26    1
    23    26    27    1
    24    26    28    1
    25    26    29    1
    26    29    30    2
    27    29    31   am
    28    31    33    1
    29    33    34   ar
    30    34    35   ar
    31    35    36   ar
    32    36    39    1
    33    39    40    2
    34    40    41    1
    35    41    42   ar
    36    41    43   ar
    37    36    37   ar
    38    37    38   ar
    39    12    13   ar
    40    13    14   ar
    41    14     6   ar
    42    20    15   ar
    43    25    21    1
    44    14     9   ar
    45    38    33   ar
    46     3     4    1
    47    31    32    1
@<TRIPOS>MOLECULE
*****
 43 47 0 0 0
SMALL
GASTEIGER

@<TRIPOS>ATOM
      1 C          59.7048   89.8173    6.4376 C.2     1  UNL1        0.2461
      2 O          58.4878   89.1592    5.8581 O.2     1  UNL1       -0.2701
      3 N          60.2947   91.0240    5.7700 N.am    1  UNL1       -0.2964
      4 H          61.0934   91.4559    6.1503 H       1  UNL1        0.1501
      5 C          62.0523   91.8011   11.4720 C.3     1  UNL1        0.1305
      6 N          61.9972   90.3227   11.2244 N.ar    1  UNL1       -0.3242
      7 C          62.4930   89.2541   12.1530 C.ar    1  UNL1        0.0738
      8 C          62.2389   87.9244   11.5072 C.ar    1  UNL1       -0.0038
      9 C          61.5861   88.1711   10.1794 C.ar    1  UNL1        0.0133
     10 C          61.1083   87.2375    9.1070 C.ar    1  UNL1        0.0013
     11 C          60.4813   87.7863    7.8597 C.ar    1  UNL1        0.0046
     12 C          60.3319   89.2686    7.6850 C.ar    1  UNL1        0.0548
     13 C          60.8096   90.2021    8.7574 C.ar    1  UNL1        0.0217
     14 C          61.4367   89.6534   10.0046 C.ar    1  UNL1        0.0598
     15 C          63.1309   89.4763   13.4924 C.ar    1  UNL1        0.0967
     16 C          64.5779   89.8616   13.5792 C.ar    1  UNL1        0.0206
     17 C          65.2158   90.0837   14.9185 C.ar    1  UNL1        0.0032
     18 C          64.4066   89.9207   16.1710 C.ar    1  UNL1        0.0207
     19 C          62.9596   89.5355   16.0841 C.ar    1  UNL1        0.0989
     20 N          62.3217   89.3133   14.7448 N.ar    1  UNL1       -0.2424
     21 C          62.5780   86.5833   12.0872 C.3     1  UNL1        0.0238
     22 C          63.4899   86.3311   13.2511 C.3     1  UNL1        0.0044
     23 C          63.5403   84.8509   13.4885 C.3     1  UNL1        0.0003
     24 C          62.6594   84.1882   12.4712 C.3     1  UNL1        0.0003
     25 C          62.0647   85.2589   11.6052 C.3     1  UNL1        0.0044
     26 C          59.6675   91.5727    4.5226 C.3     1  UNL1        0.1262
     27 C          58.3256   91.5621    5.1926 C.3     1  UNL1        0.0290
     28 C          61.0095   91.5832    3.8526 C.3     1  UNL1        0.0290
     29 C          59.0405   92.1214    3.2754 C.2     1  UNL1        0.2419
     30 O          57.5469   92.1796    3.1500 O.2     1  UNL1       -0.2731
     31 N          59.9070   92.6118    2.1535 N.am    1  UNL1       -0.2826
     32 H          60.8874   92.5736    2.2358 H       1  UNL1        0.1549
     33 C          59.2800   93.1605    0.9063 C.ar    1  UNL1        0.0503
     34 C          58.7527   92.2258   -0.1418 C.ar    1  UNL1        0.0147
     35 C          58.1257   92.7745   -1.3891 C.ar    1  UNL1        0.0013
     36 C          58.0259   94.2579   -1.5884 C.ar    1  UNL1        0.0001
     37 C          58.5531   95.1925   -0.5404 C.ar    1  UNL1        0.0013
     38 C          59.1802   94.6439    0.7070 C.ar    1  UNL1        0.0147
     39 C          57.3988   94.8065   -2.8356 C.2     1  UNL1        0.0012
     40 C          55.9121   94.9917   -2.9087 C.2     1  UNL1        0.0151
     41 C          55.2851   95.5404   -4.1561 C.2     1  UNL1        0.0729
     42 O          56.1229   95.7670   -5.3795 O.co2   1  UNL1       -0.5446
     43 O          53.8203   95.8625   -4.1800 O.co2   1  UNL1       -0.5446
@<TRIPOS>UNITY_ATOM_ATTR
42 1
charge -1
@<TRIPOS>BOND
     1     5     6    1
     2     6     7   ar
     3     7    15    1
     4    15    16   ar
     5    16    17   ar
     6    17    18   ar
     7    18    19   ar
     8    19    20   ar
     9     7     8   ar
    10     8    21    1
    11    21    22    1
    12    22    23    1
    13    23    24    1
    14    24    25    1
    15     8     9   ar
    16     9    10   ar
    17    10    11   ar
    18    11    12   ar
    19    12     1    1
    20     1     2    2
    21     1     3   am
    22     3    26    1
    23    26    27    1
    24    26    28    1
    25    26    29    1
    26    29    30    2
    27    29    31   am
    28    31    33    1
    29    33    34   ar
    30    34    35   ar
    31    35    36   ar
    32    36    39    1
    33    39    40    2
    34    40    41    1
    35    41    42   ar
    36    41    43   ar
    37    36    37   ar
    38    37    38   ar
    39    12    13   ar
    40    13    14   ar
    41    14     6   ar
    42    20    15   ar
    43    25    21    1
    44    14     9   ar
    45    38    33   ar
    46     3     4    1
    47    31    32    1
@<TRIPOS>MOLECULE
*****
 43 47 0 0 0
SMALL
GASTEIGER

@<TRIPOS>ATOM
      1 C          59.8295   89.1549    6.6195 C.2     1  UNL1        0.2461
      2 O          58.3760   89.0058    6.2803 O.2     1  UNL1       -0.2701
      3 N          60.6596   90.1922    5.9233 N.am    1  UNL1       -0.2964
      4 H          61.6136   90.2900    6.1460 H       1  UNL1        0.1501
      5 C          62.3432   89.6155   11.9356 C.3     1  UNL1        0.1305
      6 N          62.2203   88.2622   11.3005 N.ar    1  UNL1       -0.3242
      7 C          62.6847   86.9647   11.8928 C.ar    1  UNL1        0.0738
      8 C          62.3629   85.8695   10.9199 C.ar    1  UNL1       -0.0038
      9 C          61.6995   86.4899    9.7261 C.ar    1  UNL1        0.0133
     10 C          61.1643   85.8994    8.4554 C.ar    1  UNL1        0.0013
     11 C          60.5410   86.7877    7.4199 C.ar    1  UNL1        0.0046
     12 C          60.4528   88.2666    7.6551 C.ar    1  UNL1        0.0548
     13 C          60.9880   88.8571    8.9259 C.ar    1  UNL1        0.0217
     14 C          61.6113   87.9688    9.9614 C.ar    1  UNL1        0.0598
     15 C          63.3536   86.7928   13.2244 C.ar    1  UNL1        0.0967
     16 C          63.6131   85.4164   13.7612 C.ar    1  UNL1        0.0206
     17 C          64.2820   85.2445   15.0927 C.ar    1  UNL1        0.0032
     18 C          64.6914   86.4489   15.8875 C.ar    1  UNL1        0.0207
     19 C          64.4319   87.8253   15.3507 C.ar    1  UNL1        0.0989
     20 N          63.7630   87.9972   14.0191 N.ar    1  UNL1       -0.2424
     21 C          62.6533   84.4099   11.1076 C.3     1  UNL1        0.0238
     22 C          62.0118   83.5061   12.1182 C.3     1  UNL1        0.0044
     23 C          62.5983   82.1354   11.9529 C.3     1  UNL1        0.0003
     24 C          63.6025   82.1922   10.8400 C.3     1  UNL1        0.0003
     25 C          63.6365   83.5979   10.3176 C.3     1  UNL1        0.0044
     26 C          60.0363   91.0805    4.8877 C.3     1  UNL1        0.1262
     27 C          58.7086   90.9478    5.5729 C.3     1  UNL1        0.0290
     28 C          61.3639   91.2132    4.2024 C.3     1  UNL1        0.0290
     29 C          59.4130   91.9688    3.8521 C.2     1  UNL1        0.2419
     30 O          57.9804   92.3912    3.9904 O.2     1  UNL1       -0.2731
     31 N          60.2223   92.4347    2.6783 N.am    1  UNL1       -0.2826
     32 H          61.1626   92.1574    2.5875 H       1  UNL1        0.1549
     33 C          59.5990   93.3230    1.6427 C.ar    1  UNL1        0.0503
     34 C          59.9179   94.7886    1.6215 C.ar    1  UNL1        0.0147
     35 C          59.2946   95.6768    0.5860 C.ar    1  UNL1        0.0013
     36 C          58.3524   95.0996   -0.4285 C.ar    1  UNL1        0.0001
     37 C          58.0335   93.6341   -0.4073 C.ar    1  UNL1        0.0013
     38 C          58.6568   92.7457    0.6283 C.ar    1  UNL1        0.0147
     39 C          57.7292   95.9879   -1.4640 C.2     1  UNL1        0.0012
     40 C          56.5206   95.5234   -2.2214 C.2     1  UNL1        0.0151
     41 C          55.8973   96.4118   -3.2570 C.2     1  UNL1        0.0729
     42 O          54.4727   96.8560   -3.1049 O.co2   1  UNL1       -0.5446
     43 O          56.6987   96.8558   -4.4447 O.co2   1  UNL1       -0.5446
@<TRIPOS>UNITY_ATOM_ATTR
42 1
charge -1
@<TRIPOS>BOND
     1     5     6    1
     2     6     7   ar
     3     7    15    1
     4    15    16   ar
     5    16    17   ar
     6    17    18   ar
     7    18    19   ar
     8    19    20   ar
     9     7     8   ar
    10     8    21    1
    11    21    22    1
    12    22    23    1
    13    23    24    1
    14    24    25    1
    15     8     9   ar
    16     9    10   ar
    17    10    11   ar
    18    11    12   ar
    19    12     1    1
    20     1     2    2
    21     1     3   am
    22     3    26    1
    23    26    27    1
    24    26    28    1
    25    26    29    1
    26    29    30    2
    27    29    31   am
    28    31    33    1
    29    33    34   ar
    30    34    35   ar
    31    35    36   ar
    32    36    39    1
    33    39    40    2
    34    40    41    1
    35    41    42   ar
    36    41    43   ar
    37    36    37   ar
    38    37    38   ar
    39    12    13   ar
    40    13    14   ar
    41    14     6   ar
    42    20    15   ar
    43    25    21    1
    44    14     9   ar
    45    38    33   ar
    46     3     4    1
    47    31    32    1
