@<TRIPOS>MOLECULE
*****
 30 31 0 0 0
SMALL
GASTEIGER

@<TRIPOS>ATOM
      1 C          61.8899   90.0775   11.3790 C.ar    1  UNL1        0.1344
      2 C          62.9089   90.9105   10.6595 C.ar    1  UNL1        0.0310
      3 C          64.0679   91.4934   11.4123 C.ar    1  UNL1       -0.0067
      4 C          65.0870   92.3265   10.6928 C.3     1  UNL1        0.0319
      5 C          64.2079   91.2433   12.8847 C.ar    1  UNL1        0.0959
      6 C          63.1890   90.4103   13.6042 C.ar    1  UNL1        0.1392
      7 N          62.0299   89.8274   12.8514 N.ar    1  UNL1       -0.2155
      8 N          60.7308   89.4946   10.6262 N.pl3   1  UNL1       -0.2819
      9 H          59.8605   89.9550   10.6287 H       1  UNL1        0.1551
     10 C          62.9025   85.2664    8.3269 C.3     1  UNL1        0.0515
     11 C          61.8958   86.2668    8.8126 C.ar    1  UNL1        0.0548
     12 C          62.1954   87.5086    9.5988 C.ar    1  UNL1        0.0502
     13 C          60.8976   88.2103    9.8695 C.ar    1  UNL1        0.1539
     14 N          59.7958   87.4021    9.2506 N.ar    1  UNL1       -0.1577
     15 N          60.4127   86.2009    8.5974 N.ar    1  UNL1       -0.2786
     16 H          59.9292   85.4935    8.1126 H       1  UNL1        0.1886
     17 C          65.3671   91.8263   13.6376 C.1     1  UNL1        0.1029
     18 N          66.5261   92.4092   14.3903 N.1     1  UNL1       -0.1907
     19 N          63.3290   90.1602   15.0766 N.pl3   1  UNL1       -0.3192
     20 H          63.2380   90.9056   15.7133 H       1  UNL1        0.1482
     21 C          63.6077   88.7746   15.5788 C.3     1  UNL1        0.0704
     22 C          63.1348   88.3613   16.9410 C.3     1  UNL1        0.0212
     23 C          64.3593   87.8021   14.7188 C.3     1  UNL1        0.0196
     24 C          64.4389   86.3573   15.1139 C.3     1  UNL1        0.0041
     25 C          63.8553   85.3024   14.2213 C.3     1  UNL1        0.0270
     26 C          63.3728   84.0081   14.8061 C.3     1  UNL1        0.0885
     27 C          64.1078   83.2522   13.7392 C.3     1  UNL1        0.0293
     28 C          62.6379   84.7641   15.8730 C.3     1  UNL1        0.0293
     29 O          62.8904   82.7138   15.3908 O.3     1  UNL1       -0.3867
     30 H          63.2345   81.9739   14.8664 H       1  UNL1        0.2102
@<TRIPOS>BOND
     1    10    11    1
     2    11    12   ar
     3    12    13   ar
     4    13     8    1
     5     8     1    1
     6     1     2   ar
     7     2     3   ar
     8     3     4    1
     9     3     5   ar
    10     5    17    1
    11    17    18    3
    12     5     6   ar
    13     6    19    1
    14    19    21    1
    15    21    22    1
    16    21    23    1
    17    23    24    1
    18    24    25    1
    19    25    26    1
    20    26    27    1
    21    26    28    1
    22    26    29    1
    23     6     7   ar
    24    13    14   ar
    25    14    15   ar
    26    15    11   ar
    27     7     1   ar
    28     8     9    1
    29    19    20    1
    30    29    30    1
    31    15    16    1
@<TRIPOS>MOLECULE
*****
 30 31 0 0 0
SMALL
GASTEIGER

@<TRIPOS>ATOM
      1 C          62.7073   85.3243   11.4761 C.ar    1  UNL1        0.1344
      2 C          62.8128   84.9501   10.0274 C.ar    1  UNL1        0.0310
      3 C          61.9504   85.6373    9.0106 C.ar    1  UNL1       -0.0067
      4 C          62.0558   85.2630    7.5618 C.3     1  UNL1        0.0319
      5 C          60.9825   86.6987    9.4425 C.ar    1  UNL1        0.0959
      6 C          60.8770   87.0729   10.8912 C.ar    1  UNL1        0.1392
      7 N          61.7394   86.3858   11.9080 N.ar    1  UNL1       -0.2155
      8 N          63.5698   84.6371   12.4930 N.pl3   1  UNL1       -0.2819
      9 H          64.4553   85.0047   12.7165 H       1  UNL1        0.1551
     10 C          62.1376   79.6306   13.3669 C.3     1  UNL1        0.0515
     11 C          62.4247   81.0887   13.5710 C.ar    1  UNL1        0.0548
     12 C          62.9437   82.0388   12.5329 C.ar    1  UNL1        0.0502
     13 C          63.0830   83.3899   13.1693 C.ar    1  UNL1        0.1539
     14 N          62.6500   83.2748   14.6009 N.ar    1  UNL1       -0.1577
     15 N          62.2432   81.8525   14.8492 N.ar    1  UNL1       -0.2786
     16 H          61.9147   81.4850   15.7014 H       1  UNL1        0.1886
     17 C          60.1200   87.3859    8.4256 C.1     1  UNL1        0.1029
     18 N          59.2577   88.0731    7.4087 N.1     1  UNL1       -0.1907
     19 N          59.9091   88.1344   11.3230 N.pl3   1  UNL1       -0.3192
     20 H          59.0360   87.8803   11.7004 H       1  UNL1        0.1482
     21 C          60.2714   89.5829   11.1800 C.3     1  UNL1        0.0704
     22 C          59.2937   90.6445   11.5888 C.3     1  UNL1        0.0212
     23 C          61.6114   89.9698   10.6280 C.3     1  UNL1        0.0196
     24 C          62.6857   90.4692   11.5481 C.3     1  UNL1        0.0041
     25 C          63.1865   89.5959   12.6601 C.3     1  UNL1        0.0270
     26 C          64.2585   90.0965   13.5822 C.3     1  UNL1        0.0885
     27 C          64.2217   88.7970   14.3304 C.3     1  UNL1        0.0293
     28 C          64.2952   91.3960   12.8339 C.3     1  UNL1        0.0293
     29 O          65.3304   90.5971   14.5043 O.3     1  UNL1       -0.3867
     30 H          65.5391   89.9127   15.1592 H       1  UNL1        0.2102
@<TRIPOS>BOND
     1    10    11    1
     2    11    12   ar
     3    12    13   ar
     4    13     8    1
     5     8     1    1
     6     1     2   ar
     7     2     3   ar
     8     3     4    1
     9     3     5   ar
    10     5    17    1
    11    17    18    3
    12     5     6   ar
    13     6    19    1
    14    19    21    1
    15    21    22    1
    16    21    23    1
    17    23    24    1
    18    24    25    1
    19    25    26    1
    20    26    27    1
    21    26    28    1
    22    26    29    1
    23     6     7   ar
    24    13    14   ar
    25    14    15   ar
    26    15    11   ar
    27     7     1   ar
    28     8     9    1
    29    19    20    1
    30    29    30    1
    31    15    16    1
@<TRIPOS>MOLECULE
*****
 30 31 0 0 0
SMALL
GASTEIGER

@<TRIPOS>ATOM
      1 C          62.4570   85.7887   10.7468 C.ar    1  UNL1        0.1344
      2 C          63.0182   84.5432   10.1272 C.ar    1  UNL1        0.0310
      3 C          63.3540   83.3625   10.9893 C.ar    1  UNL1       -0.0067
      4 C          63.9152   82.1170   10.3698 C.3     1  UNL1        0.0319
      5 C          63.1286   83.4273   12.4708 C.ar    1  UNL1        0.0959
      6 C          62.5674   84.6728   13.0904 C.ar    1  UNL1        0.1392
      7 N          62.2316   85.8534   12.2283 N.ar    1  UNL1       -0.2155
      8 N          62.1211   86.9695    9.8847 N.pl3   1  UNL1       -0.2819
      9 H          62.2085   86.9053    8.9062 H       1  UNL1        0.1551
     10 C          59.0071   90.8567   11.6375 C.3     1  UNL1        0.0515
     11 C          60.2208   90.0347   11.3192 C.ar    1  UNL1        0.0548
     12 C          60.2282   88.7072   10.6210 C.ar    1  UNL1        0.0502
     13 C          61.6522   88.2480   10.5136 C.ar    1  UNL1        0.1539
     14 N          62.5247   89.2917   11.1454 N.ar    1  UNL1       -0.1577
     15 N          61.6401   90.3960   11.6433 N.ar    1  UNL1       -0.2786
     16 H          61.9387   91.2143   12.1022 H       1  UNL1        0.1886
     17 C          63.4644   82.2465   13.3329 C.1     1  UNL1        0.1029
     18 N          63.8003   81.0658   14.1949 N.1     1  UNL1       -0.1907
     19 N          62.3420   84.7375   14.5719 N.pl3   1  UNL1       -0.3192
     20 H          61.5743   84.2705   14.9739 H       1  UNL1        0.1482
     21 C          63.2864   85.5139   15.4410 C.3     1  UNL1        0.0704
     22 C          62.9721   85.7198   16.8931 C.3     1  UNL1        0.0212
     23 C          64.5453   86.0844   14.8579 C.3     1  UNL1        0.0196
     24 C          64.8365   87.5498   14.9911 C.3     1  UNL1        0.0041
     25 C          63.8448   88.5598   14.4946 C.3     1  UNL1        0.0270
     26 C          63.8020   89.9305   15.1023 C.3     1  UNL1        0.0885
     27 C          64.5039   90.4860   13.8987 C.3     1  UNL1        0.0293
     28 C          63.1002   89.3750   16.3060 C.3     1  UNL1        0.0293
     29 O          63.7593   91.3012   15.7100 O.3     1  UNL1       -0.3867
     30 H          64.1780   91.9353   15.1072 H       1  UNL1        0.2102
@<TRIPOS>BOND
     1    10    11    1
     2    11    12   ar
     3    12    13   ar
     4    13     8    1
     5     8     1    1
     6     1     2   ar
     7     2     3   ar
     8     3     4    1
     9     3     5   ar
    10     5    17    1
    11    17    18    3
    12     5     6   ar
    13     6    19    1
    14    19    21    1
    15    21    22    1
    16    21    23    1
    17    23    24    1
    18    24    25    1
    19    25    26    1
    20    26    27    1
    21    26    28    1
    22    26    29    1
    23     6     7   ar
    24    13    14   ar
    25    14    15   ar
    26    15    11   ar
    27     7     1   ar
    28     8     9    1
    29    19    20    1
    30    29    30    1
    31    15    16    1
@<TRIPOS>MOLECULE
*****
 30 31 0 0 0
SMALL
GASTEIGER

@<TRIPOS>ATOM
      1 C          64.0004   90.3991   14.6259 C.ar    1  UNL1        0.1344
      2 C          65.2533   91.2093   14.7799 C.ar    1  UNL1        0.0310
      3 C          65.7744   92.0115   13.6245 C.ar    1  UNL1       -0.0067
      4 C          67.0274   92.8218   13.7785 C.3     1  UNL1        0.0319
      5 C          65.0427   92.0034   12.3152 C.ar    1  UNL1        0.0959
      6 C          63.7898   91.1932   12.1611 C.ar    1  UNL1        0.1392
      7 N          63.2686   90.3911   13.3165 N.ar    1  UNL1       -0.2155
      8 N          63.4792   89.5969   15.7813 N.pl3   1  UNL1       -0.2819
      9 H          63.0616   90.0520   16.5480 H       1  UNL1        0.1551
     10 C          64.8324   84.6758   14.4280 C.3     1  UNL1        0.0515
     11 C          64.2162   85.8394   15.1465 C.ar    1  UNL1        0.0548
     12 C          64.3818   87.2861   14.7863 C.ar    1  UNL1        0.0502
     13 C          63.5942   88.1014   15.7686 C.ar    1  UNL1        0.1539
     14 N          62.9418   87.1587   16.7359 N.ar    1  UNL1       -0.1577
     15 N          63.3262   85.7607   16.3515 N.ar    1  UNL1       -0.2786
     16 H          63.0440   84.9362   16.8095 H       1  UNL1        0.1886
     17 C          65.5639   92.8056   11.1598 C.1     1  UNL1        0.1029
     18 N          66.0851   93.6078   10.0044 N.1     1  UNL1       -0.1907
     19 N          63.0580   91.1851   10.8518 N.pl3   1  UNL1       -0.3192
     20 H          63.2590   91.8677   10.1713 H       1  UNL1        0.1482
     21 C          62.0201   90.1371   10.5791 C.3     1  UNL1        0.0704
     22 C          60.5736   90.4252   10.8521 C.3     1  UNL1        0.0212
     23 C          62.4287   88.8010   10.0333 C.3     1  UNL1        0.0196
     24 C          62.0199   87.5442   10.7426 C.3     1  UNL1        0.0041
     25 C          61.6826   86.3136    9.9540 C.3     1  UNL1        0.0270
     26 C          62.6572   85.1753    9.8868 C.3     1  UNL1        0.0885
     27 C          62.8700   85.4437    8.4264 C.3     1  UNL1        0.0293
     28 C          62.4445   84.9070   11.3471 C.3     1  UNL1        0.0293
     29 O          63.6318   84.0371    9.8196 O.3     1  UNL1       -0.3867
     30 H          63.9716   83.9554    8.9147 H       1  UNL1        0.2102
@<TRIPOS>BOND
     1    10    11    1
     2    11    12   ar
     3    12    13   ar
     4    13     8    1
     5     8     1    1
     6     1     2   ar
     7     2     3   ar
     8     3     4    1
     9     3     5   ar
    10     5    17    1
    11    17    18    3
    12     5     6   ar
    13     6    19    1
    14    19    21    1
    15    21    22    1
    16    21    23    1
    17    23    24    1
    18    24    25    1
    19    25    26    1
    20    26    27    1
    21    26    28    1
    22    26    29    1
    23     6     7   ar
    24    13    14   ar
    25    14    15   ar
    26    15    11   ar
    27     7     1   ar
    28     8     9    1
    29    19    20    1
    30    29    30    1
    31    15    16    1
@<TRIPOS>MOLECULE
*****
 30 31 0 0 0
SMALL
GASTEIGER

@<TRIPOS>ATOM
      1 C          61.6135   89.1354   11.4676 C.ar    1  UNL1        0.1344
      2 C          60.8714   89.6697   10.2787 C.ar    1  UNL1        0.0310
      3 C          60.4504   88.7415    9.1781 C.ar    1  UNL1       -0.0067
      4 C          59.7083   89.2759    7.9891 C.3     1  UNL1        0.0319
      5 C          60.7716   87.2790    9.2666 C.ar    1  UNL1        0.0959
      6 C          61.5138   86.7447   10.4555 C.ar    1  UNL1        0.1392
      7 N          61.9347   87.6729   11.5561 N.ar    1  UNL1       -0.2155
      8 N          62.0345   90.0636   12.5683 N.pl3   1  UNL1       -0.2819
      9 H          61.5079   90.1134   13.3986 H       1  UNL1        0.1551
     10 C          65.9397   92.8773   10.3973 C.3     1  UNL1        0.0515
     11 C          65.0528   92.2092   11.4059 C.ar    1  UNL1        0.0548
     12 C          63.8353   91.3873   11.1022 C.ar    1  UNL1        0.0502
     13 C          63.2577   90.9159   12.4037 C.ar    1  UNL1        0.1539
     14 N          64.1182   91.4465   13.5119 N.ar    1  UNL1       -0.1577
     15 N          65.2276   92.2459   12.8953 N.ar    1  UNL1       -0.2786
     16 H          65.9446   92.7126   13.3825 H       1  UNL1        0.1886
     17 C          60.3507   86.3508    8.1659 C.1     1  UNL1        0.1029
     18 N          59.9297   85.4227    7.0653 N.1     1  UNL1       -0.1907
     19 N          61.8350   85.2821   10.5439 N.pl3   1  UNL1       -0.3192
     20 H          61.2849   84.6905   11.1067 H       1  UNL1        0.1482
     21 C          62.9941   84.7210    9.7749 C.3     1  UNL1        0.0704
     22 C          63.3440   85.2834    8.4291 C.3     1  UNL1        0.0212
     23 C          63.8034   83.5974   10.3517 C.3     1  UNL1        0.0196
     24 C          63.6941   83.2663   11.8106 C.3     1  UNL1        0.0041
     25 C          63.3588   81.8685   12.2394 C.3     1  UNL1        0.0270
     26 C          62.6644   81.6315   13.5476 C.3     1  UNL1        0.0885
     27 C          62.9550   83.0447   13.9579 C.3     1  UNL1        0.0293
     28 C          62.3737   80.2183   13.1373 C.3     1  UNL1        0.0293
     29 O          61.9699   81.3945   14.8558 O.3     1  UNL1       -0.3867
     30 H          61.9974   82.2050   15.3880 H       1  UNL1        0.2102
@<TRIPOS>BOND
     1    10    11    1
     2    11    12   ar
     3    12    13   ar
     4    13     8    1
     5     8     1    1
     6     1     2   ar
     7     2     3   ar
     8     3     4    1
     9     3     5   ar
    10     5    17    1
    11    17    18    3
    12     5     6   ar
    13     6    19    1
    14    19    21    1
    15    21    22    1
    16    21    23    1
    17    23    24    1
    18    24    25    1
    19    25    26    1
    20    26    27    1
    21    26    28    1
    22    26    29    1
    23     6     7   ar
    24    13    14   ar
    25    14    15   ar
    26    15    11   ar
    27     7     1   ar
    28     8     9    1
    29    19    20    1
    30    29    30    1
    31    15    16    1
@<TRIPOS>MOLECULE
*****
 30 31 0 0 0
SMALL
GASTEIGER

@<TRIPOS>ATOM
      1 C          62.7094   84.9919   11.2148 C.ar    1  UNL1        0.1344
      2 C          62.7905   84.7177    9.7424 C.ar    1  UNL1        0.0310
      3 C          61.9513   85.5104    8.7846 C.ar    1  UNL1       -0.0067
      4 C          62.0324   85.2361    7.3120 C.3     1  UNL1        0.0319
      5 C          61.0311   86.5773    9.2992 C.ar    1  UNL1        0.0959
      6 C          60.9501   86.8516   10.7717 C.ar    1  UNL1        0.1392
      7 N          61.7892   86.0589   11.7295 N.ar    1  UNL1       -0.2155
      8 N          63.5485   84.1992   12.1727 N.pl3   1  UNL1       -0.2819
      9 H          64.2803   83.6339   11.8347 H       1  UNL1        0.1551
     10 C          63.2579   85.9325   17.1518 C.3     1  UNL1        0.0515
     11 C          63.1393   85.0646   15.9342 C.ar    1  UNL1        0.0548
     12 C          63.5811   85.4263   14.5472 C.ar    1  UNL1        0.0502
     13 C          63.2729   84.2678   13.6456 C.ar    1  UNL1        0.1539
     14 N          62.6405   83.1901   14.4754 N.ar    1  UNL1       -0.1577
     15 N          62.5579   83.6824   15.8899 N.ar    1  UNL1       -0.2786
     16 H          62.1873   83.1857   16.6548 H       1  UNL1        0.1886
     17 C          60.1920   87.3700    8.3413 C.1     1  UNL1        0.1029
     18 N          59.3529   88.1627    7.3835 N.1     1  UNL1       -0.1907
     19 N          60.0299   87.9185   11.2863 N.pl3   1  UNL1       -0.3192
     20 H          59.1613   87.6721   11.6789 H       1  UNL1        0.1482
     21 C          60.4330   89.3609   11.2028 C.3     1  UNL1        0.0704
     22 C          59.4664   90.4344   11.6070 C.3     1  UNL1        0.0212
     23 C          61.8027   89.7298   10.7150 C.3     1  UNL1        0.0196
     24 C          62.7581   90.4394   11.6281 C.3     1  UNL1        0.0041
     25 C          63.1235   89.8319   12.9500 C.3     1  UNL1        0.0270
     26 C          64.3617   90.2834   13.6662 C.3     1  UNL1        0.0885
     27 C          64.4137   91.5093   12.8036 C.3     1  UNL1        0.0293
     28 C          64.3097   89.0574   14.5289 C.3     1  UNL1        0.0293
     29 O          65.5999   90.7348   14.3824 O.3     1  UNL1       -0.3867
     30 H          65.8986   91.5796   14.0108 H       1  UNL1        0.2102
@<TRIPOS>BOND
     1    10    11    1
     2    11    12   ar
     3    12    13   ar
     4    13     8    1
     5     8     1    1
     6     1     2   ar
     7     2     3   ar
     8     3     4    1
     9     3     5   ar
    10     5    17    1
    11    17    18    3
    12     5     6   ar
    13     6    19    1
    14    19    21    1
    15    21    22    1
    16    21    23    1
    17    23    24    1
    18    24    25    1
    19    25    26    1
    20    26    27    1
    21    26    28    1
    22    26    29    1
    23     6     7   ar
    24    13    14   ar
    25    14    15   ar
    26    15    11   ar
    27     7     1   ar
    28     8     9    1
    29    19    20    1
    30    29    30    1
    31    15    16    1
@<TRIPOS>MOLECULE
*****
 30 31 0 0 0
SMALL
GASTEIGER

@<TRIPOS>ATOM
      1 C          63.3480   88.0904   12.9114 C.ar    1  UNL1        0.1344
      2 C          62.8178   89.3192   12.2339 C.ar    1  UNL1        0.0310
      3 C          62.0025   89.1923   10.9813 C.ar    1  UNL1       -0.0067
      4 C          61.4723   90.4211   10.3038 C.3     1  UNL1        0.0319
      5 C          61.7174   87.8366   10.4061 C.ar    1  UNL1        0.0959
      6 C          62.2476   86.6079   11.0835 C.ar    1  UNL1        0.1392
      7 N          63.0628   86.7347   12.3362 N.ar    1  UNL1       -0.2155
      8 N          64.1633   88.2173   14.1641 N.pl3   1  UNL1       -0.2819
      9 H          64.5797   87.4195   14.5633 H       1  UNL1        0.1551
     10 C          66.1682   92.9138   15.5070 C.3     1  UNL1        0.0515
     11 C          65.2658   91.7184   15.4257 C.ar    1  UNL1        0.0548
     12 C          65.4912   90.4992   14.5815 C.ar    1  UNL1        0.0502
     13 C          64.3442   89.5596   14.8085 C.ar    1  UNL1        0.1539
     14 N          63.4099   90.1981   15.7931 N.ar    1  UNL1       -0.1577
     15 N          63.9794   91.5323   16.1746 N.ar    1  UNL1       -0.2786
     16 H          63.5792   92.1733   16.8056 H       1  UNL1        0.1886
     17 C          60.9020   87.7098    9.1534 C.1     1  UNL1        0.1029
     18 N          60.0867   87.5830    7.9008 N.1     1  UNL1       -0.1907
     19 N          61.9624   85.2522   10.5083 N.pl3   1  UNL1       -0.3192
     20 H          61.1145   84.7975   10.7168 H       1  UNL1        0.1482
     21 C          62.9692   84.5893    9.6157 C.3     1  UNL1        0.0704
     22 C          63.1168   85.0349    8.1910 C.3     1  UNL1        0.0212
     23 C          63.8285   83.4808   10.1476 C.3     1  UNL1        0.0196
     24 C          63.3051   82.5767   11.2239 C.3     1  UNL1        0.0041
     25 C          63.5151   82.9286   12.6669 C.3     1  UNL1        0.0270
     26 C          62.7868   82.1712   13.7373 C.3     1  UNL1        0.0885
     27 C          63.0351   80.8893   12.9991 C.3     1  UNL1        0.0293
     28 C          62.5384   83.4531   14.4755 C.3     1  UNL1        0.0293
     29 O          62.0585   81.4137   14.8077 O.3     1  UNL1       -0.3867
     30 H          62.0529   80.4688   14.5883 H       1  UNL1        0.2102
@<TRIPOS>BOND
     1    10    11    1
     2    11    12   ar
     3    12    13   ar
     4    13     8    1
     5     8     1    1
     6     1     2   ar
     7     2     3   ar
     8     3     4    1
     9     3     5   ar
    10     5    17    1
    11    17    18    3
    12     5     6   ar
    13     6    19    1
    14    19    21    1
    15    21    22    1
    16    21    23    1
    17    23    24    1
    18    24    25    1
    19    25    26    1
    20    26    27    1
    21    26    28    1
    22    26    29    1
    23     6     7   ar
    24    13    14   ar
    25    14    15   ar
    26    15    11   ar
    27     7     1   ar
    28     8     9    1
    29    19    20    1
    30    29    30    1
    31    15    16    1
@<TRIPOS>MOLECULE
*****
 30 31 0 0 0
SMALL
GASTEIGER

@<TRIPOS>ATOM
      1 C          63.6198   88.3453   13.1516 C.ar    1  UNL1        0.1344
      2 C          64.2702   87.6691   14.3219 C.ar    1  UNL1        0.0310
      3 C          64.2088   86.1763   14.4548 C.ar    1  UNL1       -0.0067
      4 C          64.8593   85.5001   15.6252 C.3     1  UNL1        0.0319
      5 C          63.4970   85.3596   13.4174 C.ar    1  UNL1        0.0959
      6 C          62.8465   86.0358   12.2470 C.ar    1  UNL1        0.1392
      7 N          62.9079   87.5286   12.1142 N.ar    1  UNL1       -0.2155
      8 N          63.6812   89.8381   13.0187 N.pl3   1  UNL1       -0.2819
      9 H          63.3443   90.2740   12.2027 H       1  UNL1        0.1551
     10 C          67.0302   92.6853   15.9441 C.3     1  UNL1        0.0515
     11 C          65.7953   91.9756   15.4736 C.ar    1  UNL1        0.0548
     12 C          65.6534   91.2079   14.1928 C.ar    1  UNL1        0.0502
     13 C          64.2559   90.6670   14.1290 C.ar    1  UNL1        0.1539
     14 N          63.5339   91.1003   15.3703 N.ar    1  UNL1       -0.1577
     15 N          64.4853   91.9092   16.2014 N.ar    1  UNL1       -0.2786
     16 H          64.2851   92.3236   17.0717 H       1  UNL1        0.1886
     17 C          63.4356   83.8667   13.5503 C.1     1  UNL1        0.1029
     18 N          63.3742   82.3739   13.6832 N.1     1  UNL1       -0.1907
     19 N          62.1347   85.2191   11.2096 N.pl3   1  UNL1       -0.3192
     20 H          61.2279   84.8795   11.3874 H       1  UNL1        0.1482
     21 C          62.8045   84.9198    9.9012 C.3     1  UNL1        0.0704
     22 C          63.7822   83.7867    9.8011 C.3     1  UNL1        0.0212
     23 C          62.4965   85.7536    8.6929 C.3     1  UNL1        0.0196
     24 C          61.0830   86.1660    8.4067 C.3     1  UNL1        0.0041
     25 C          60.4529   87.2787    9.1909 C.3     1  UNL1        0.0270
     26 C          60.1391   88.5839    8.5216 C.3     1  UNL1        0.0885
     27 C          61.0188   89.2990    9.5037 C.3     1  UNL1        0.0293
     28 C          59.2594   87.8687    7.5395 C.3     1  UNL1        0.0293
     29 O          59.8253   89.8890    7.8523 O.3     1  UNL1       -0.3867
     30 H          60.2940   90.6064    8.3068 H       1  UNL1        0.2102
@<TRIPOS>BOND
     1    10    11    1
     2    11    12   ar
     3    12    13   ar
     4    13     8    1
     5     8     1    1
     6     1     2   ar
     7     2     3   ar
     8     3     4    1
     9     3     5   ar
    10     5    17    1
    11    17    18    3
    12     5     6   ar
    13     6    19    1
    14    19    21    1
    15    21    22    1
    16    21    23    1
    17    23    24    1
    18    24    25    1
    19    25    26    1
    20    26    27    1
    21    26    28    1
    22    26    29    1
    23     6     7   ar
    24    13    14   ar
    25    14    15   ar
    26    15    11   ar
    27     7     1   ar
    28     8     9    1
    29    19    20    1
    30    29    30    1
    31    15    16    1
@<TRIPOS>MOLECULE
*****
 30 31 0 0 0
SMALL
GASTEIGER

@<TRIPOS>ATOM
      1 C          62.4615   86.2455   11.3455 C.ar    1  UNL1        0.1344
      2 C          62.3192   84.7526   11.3155 C.ar    1  UNL1        0.0310
      3 C          62.8275   83.9276   12.4605 C.ar    1  UNL1       -0.0067
      4 C          62.6852   82.4346   12.4305 C.3     1  UNL1        0.0319
      5 C          63.4781   84.5956   13.6354 C.ar    1  UNL1        0.0959
      6 C          63.6204   86.0885   13.6654 C.ar    1  UNL1        0.1392
      7 N          63.1121   86.9134   12.5204 N.ar    1  UNL1       -0.2155
      8 N          61.9531   87.0705   10.2004 N.pl3   1  UNL1       -0.2819
      9 H          61.9657   88.0532   10.2581 H       1  UNL1        0.1551
     10 C          61.6862   84.2733    5.7300 C.3     1  UNL1        0.0515
     11 C          61.3030   85.1125    6.9128 C.ar    1  UNL1        0.0548
     12 C          62.2303   85.5966    7.9878 C.ar    1  UNL1        0.0502
     13 C          61.4257   86.3982    8.9677 C.ar    1  UNL1        0.1539
     14 N          60.0011   86.4094    8.4982 N.ar    1  UNL1       -0.1577
     15 N          59.9252   85.6148    7.2282 N.ar    1  UNL1       -0.2786
     16 H          59.1137   85.4516    6.6953 H       1  UNL1        0.1886
     17 C          63.9864   83.7705   14.7805 C.1     1  UNL1        0.1029
     18 N          64.4947   82.9456   15.9255 N.1     1  UNL1       -0.1907
     19 N          64.2710   86.7564   14.8404 N.pl3   1  UNL1       -0.3192
     20 H          64.9022   86.2542   15.4048 H       1  UNL1        0.1482
     21 C          63.9599   88.1896   15.1554 C.3     1  UNL1        0.0704
     22 C          63.2453   88.5400   16.4268 C.3     1  UNL1        0.0212
     23 C          64.3634   89.2724   14.1989 C.3     1  UNL1        0.0196
     24 C          64.7002   90.6405   14.7136 C.3     1  UNL1        0.0041
     25 C          66.0455   91.2392   14.4276 C.3     1  UNL1        0.0270
     26 C          66.2107   92.7296   14.3913 C.3     1  UNL1        0.0885
     27 C          65.8526   92.7339   12.9348 C.3     1  UNL1        0.0293
     28 C          66.5689   92.7253   15.8479 C.3     1  UNL1        0.0293
     29 O          66.3760   94.2200   14.3551 O.3     1  UNL1       -0.3867
     30 H          66.1932   94.5439   13.4592 H       1  UNL1        0.2102
@<TRIPOS>BOND
     1    10    11    1
     2    11    12   ar
     3    12    13   ar
     4    13     8    1
     5     8     1    1
     6     1     2   ar
     7     2     3   ar
     8     3     4    1
     9     3     5   ar
    10     5    17    1
    11    17    18    3
    12     5     6   ar
    13     6    19    1
    14    19    21    1
    15    21    22    1
    16    21    23    1
    17    23    24    1
    18    24    25    1
    19    25    26    1
    20    26    27    1
    21    26    28    1
    22    26    29    1
    23     6     7   ar
    24    13    14   ar
    25    14    15   ar
    26    15    11   ar
    27     7     1   ar
    28     8     9    1
    29    19    20    1
    30    29    30    1
    31    15    16    1
