@<TRIPOS>MOLECULE
*****
 35 38 0 0 0
SMALL
GASTEIGER

@<TRIPOS>ATOM
      1 N          63.6590   88.3547   14.3935 N.am    1  UNL1       -0.2679
      2 C          63.5641   87.2372   15.3895 C.2     1  UNL1        0.2495
      3 O          63.2764   87.5391   16.8304 O.2     1  UNL1       -0.2699
      4 C          63.7569   85.8176   14.9447 C.ar    1  UNL1        0.0542
      5 C          65.1197   85.3356   14.5445 C.ar    1  UNL1        0.0061
      6 C          65.3124   83.9161   14.0997 C.ar    1  UNL1        0.0198
      7 C          64.1423   82.9787   14.0550 C.ar    1  UNL1        0.0892
      8 N          64.0268   81.5355   13.6625 N.ar    1  UNL1       -0.2245
      9 C          62.5925   81.1257   13.8201 C.ar    1  UNL1        0.1567
     10 N          62.0282   79.7649   13.5375 N.pl3   1  UNL1       -0.3375
     11 S          61.8216   82.3156   14.3100 S.2     1  UNL1       -0.0520
     12 C          62.7794   83.4608   14.4551 C.ar    1  UNL1        0.0498
     13 C          62.5867   84.8802   14.9000 C.ar    1  UNL1        0.0126
     14 H          62.6176   79.0443   13.2173 H       1  UNL1        0.1442
     15 H          61.0683   79.5924   13.6722 H       1  UNL1        0.1442
     16 C          63.4662   89.7743   14.8384 C.3     1  UNL1        0.1209
     17 C          65.9875   93.0509   13.0618 C.ar    1  UNL1        0.1724
     18 C          64.9142   92.4011   12.2397 C.ar    1  UNL1        0.0398
     19 C          64.0737   91.3089   12.8319 C.ar    1  UNL1        0.0007
     20 C          64.3067   90.8665   14.2462 C.ar    1  UNL1        0.0009
     21 C          65.3800   91.5163   15.0682 C.ar    1  UNL1        0.0374
     22 C          66.2204   92.6085   14.4760 C.ar    1  UNL1        0.1721
     23 C          66.3561   94.8736   11.2473 C.3     1  UNL1        0.2526
     24 O          66.8280   94.1432   12.4696 O.3     1  UNL1       -0.4684
     25 O          67.2937   93.2583   15.2979 O.3     1  UNL1       -0.4684
     26 C          68.3681   92.4207   15.9260 C.3     1  UNL1        0.2526
     27 C          63.9467   88.0528   12.9527 C.3     1  UNL1        0.1208
     28 C          62.8158   87.8238   11.9941 C.ar    1  UNL1       -0.0014
     29 C          62.4710   86.4300   11.5603 C.ar    1  UNL1       -0.0017
     30 C          61.3402   86.2011   10.6017 C.ar    1  UNL1        0.0120
     31 C          60.5542   87.3660   10.0770 C.ar    1  UNL1        0.0682
     32 CL         59.4234   87.1370    9.1184 Cl      1  UNL1       -0.0814
     33 C          60.8991   88.7598   10.5108 C.ar    1  UNL1        0.0679
     34 CL         60.1132   89.9247    9.9861 Cl      1  UNL1       -0.0814
     35 C          62.0299   88.9887   11.4694 C.ar    1  UNL1        0.0096
@<TRIPOS>BOND
     1    23    24    1
     2    24    17    1
     3    17    18   ar
     4    18    19   ar
     5    19    20   ar
     6    20    16    1
     7    16     1    1
     8     1    27    1
     9    27    28    1
    10    28    29   ar
    11    29    30   ar
    12    30    31   ar
    13    31    32    1
    14    31    33   ar
    15    33    34    1
    16    33    35   ar
    17     1     2   am
    18     2     3    2
    19     2     4    1
    20     4     5   ar
    21     5     6   ar
    22     6     7   ar
    23     7     8   ar
    24     8     9   ar
    25     9    10    1
    26     9    11   ar
    27    11    12   ar
    28    12    13   ar
    29    20    21   ar
    30    21    22   ar
    31    22    25    1
    32    25    26    1
    33    22    17   ar
    34    35    28   ar
    35    13     4   ar
    36    12     7   ar
    37    10    14    1
    38    10    15    1
@<TRIPOS>MOLECULE
*****
 35 38 0 0 0
SMALL
GASTEIGER

@<TRIPOS>ATOM
      1 N          63.5712   88.5067   14.5747 N.am    1  UNL1       -0.2679
      2 C          63.4776   87.3546   15.5306 C.2     1  UNL1        0.2495
      3 O          63.1257   87.5993   16.9680 O.2     1  UNL1       -0.2699
      4 C          63.7359   85.9576   15.0490 C.ar    1  UNL1        0.0542
      5 C          65.1227   85.5450   14.6536 C.ar    1  UNL1        0.0061
      6 C          65.3809   84.1481   14.1721 C.ar    1  UNL1        0.0198
      7 C          64.2523   83.1638   14.0860 C.ar    1  UNL1        0.0892
      8 N          64.2030   81.7287   13.6521 N.ar    1  UNL1       -0.2245
      9 C          62.7857   81.2544   13.7793 C.ar    1  UNL1        0.1567
     10 N          62.2831   79.8796   13.4516 N.pl3   1  UNL1       -0.3375
     11 S          61.9590   82.3964   14.2919 S.2     1  UNL1       -0.0520
     12 C          62.8655   83.5764   14.4814 C.ar    1  UNL1        0.0498
     13 C          62.6072   84.9733   14.9629 C.ar    1  UNL1        0.0126
     14 H          62.9065   79.1939   13.1193 H       1  UNL1        0.1442
     15 H          61.3299   79.6630   13.5688 H       1  UNL1        0.1442
     16 C          63.3129   89.9037   15.0563 C.3     1  UNL1        0.1209
     17 C          66.6715   92.8958   15.1863 C.ar    1  UNL1        0.1724
     18 C          65.7865   92.7092   16.3830 C.ar    1  UNL1        0.0398
     19 C          64.6670   91.7119   16.3397 C.ar    1  UNL1        0.0007
     20 C          64.4324   90.9011   15.0996 C.ar    1  UNL1        0.0009
     21 C          65.3174   91.0876   13.9030 C.ar    1  UNL1        0.0374
     22 C          66.4370   92.0850   13.9463 C.ar    1  UNL1        0.1721
     23 C          69.1241   93.5003   15.7940 C.3     1  UNL1        0.2526
     24 O          67.7911   93.8931   15.2296 O.3     1  UNL1       -0.4684
     25 O          67.3220   92.2716   12.7497 O.3     1  UNL1       -0.4684
     26 C          66.7326   92.7110   11.4422 C.3     1  UNL1        0.2526
     27 C          63.9231   88.2620   13.1372 C.3     1  UNL1        0.1208
     28 C          62.8375   88.0304   12.1283 C.ar    1  UNL1       -0.0014
     29 C          62.5458   86.6404   11.6461 C.ar    1  UNL1       -0.0017
     30 C          61.4602   86.4089   10.6372 C.ar    1  UNL1        0.0120
     31 C          60.6664   87.5675   10.1104 C.ar    1  UNL1        0.0682
     32 CL         59.5808   87.3360    9.1015 Cl      1  UNL1       -0.0814
     33 C          60.9581   88.9576   10.5926 C.ar    1  UNL1        0.0679
     34 CL         60.1643   90.1162   10.0658 Cl      1  UNL1       -0.0814
     35 C          62.0437   89.1891   11.6015 C.ar    1  UNL1        0.0096
@<TRIPOS>BOND
     1    23    24    1
     2    24    17    1
     3    17    18   ar
     4    18    19   ar
     5    19    20   ar
     6    20    16    1
     7    16     1    1
     8     1    27    1
     9    27    28    1
    10    28    29   ar
    11    29    30   ar
    12    30    31   ar
    13    31    32    1
    14    31    33   ar
    15    33    34    1
    16    33    35   ar
    17     1     2   am
    18     2     3    2
    19     2     4    1
    20     4     5   ar
    21     5     6   ar
    22     6     7   ar
    23     7     8   ar
    24     8     9   ar
    25     9    10    1
    26     9    11   ar
    27    11    12   ar
    28    12    13   ar
    29    20    21   ar
    30    21    22   ar
    31    22    25    1
    32    25    26    1
    33    22    17   ar
    34    35    28   ar
    35    13     4   ar
    36    12     7   ar
    37    10    14    1
    38    10    15    1
@<TRIPOS>MOLECULE
*****
 35 38 0 0 0
SMALL
GASTEIGER

@<TRIPOS>ATOM
      1 N          63.4015   88.9024   12.6905 N.am    1  UNL1       -0.2679
      2 C          63.5797   88.1013   13.9461 C.2     1  UNL1        0.2495
      3 O          63.5189   88.7789   15.2830 O.2     1  UNL1       -0.2699
      4 C          63.8187   86.6227   13.8648 C.ar    1  UNL1        0.0542
      5 C          64.8498   85.9801   14.7445 C.ar    1  UNL1        0.0061
      6 C          65.0887   84.5015   14.6632 C.ar    1  UNL1        0.0198
      7 C          64.2965   83.6655   13.7022 C.ar    1  UNL1        0.0892
      8 N          64.3114   82.1959   13.4018 N.ar    1  UNL1       -0.2245
      9 C          63.2895   81.9303   12.3364 C.ar    1  UNL1        0.1567
     10 N          62.9701   80.5939   11.7346 N.pl3   1  UNL1       -0.3375
     11 S          62.6430   83.2357   11.9784 S.2     1  UNL1       -0.0520
     12 C          63.2654   84.3081   12.8225 C.ar    1  UNL1        0.0498
     13 C          63.0265   85.7866   12.9038 C.ar    1  UNL1        0.0126
     14 H          63.4513   79.7901   12.0371 H       1  UNL1        0.1442
     15 H          62.2791   80.5206   11.0371 H       1  UNL1        0.1442
     16 C          63.1626   90.3811   12.7718 C.3     1  UNL1        0.1209
     17 C          66.3206   93.2523   11.3460 C.ar    1  UNL1        0.1724
     18 C          65.2079   92.8442   10.4266 C.ar    1  UNL1        0.0398
     19 C          64.1552   91.8871   10.9018 C.ar    1  UNL1        0.0007
     20 C          64.2153   91.3381   12.2965 C.ar    1  UNL1        0.0009
     21 C          65.3280   91.7462   13.2159 C.ar    1  UNL1        0.0374
     22 C          66.3807   92.7033   12.7406 C.ar    1  UNL1        0.1721
     23 C          67.6208   94.3831    9.4016 C.3     1  UNL1        0.2526
     24 O          67.3733   94.2093   10.8708 O.3     1  UNL1       -0.4684
     25 O          67.4934   93.1114   13.6600 O.3     1  UNL1       -0.4684
     26 C          67.2041   93.4098   15.1013 C.3     1  UNL1        0.2526
     27 C          63.4623   88.2249   11.3536 C.3     1  UNL1        0.1208
     28 C          62.2822   88.2823   10.4294 C.ar    1  UNL1       -0.0014
     29 C          61.4628   89.5352   10.3362 C.ar    1  UNL1       -0.0017
     30 C          60.2828   89.5925    9.4119 C.ar    1  UNL1        0.0120
     31 C          59.9222   88.3970    8.5809 C.ar    1  UNL1        0.0682
     32 CL         58.7421   88.4544    7.6567 Cl      1  UNL1       -0.0814
     33 C          60.7416   87.1441    8.6742 C.ar    1  UNL1        0.0679
     34 CL         60.3809   85.9485    7.8432 Cl      1  UNL1       -0.0814
     35 C          61.9216   87.0867    9.5984 C.ar    1  UNL1        0.0096
@<TRIPOS>BOND
     1    23    24    1
     2    24    17    1
     3    17    18   ar
     4    18    19   ar
     5    19    20   ar
     6    20    16    1
     7    16     1    1
     8     1    27    1
     9    27    28    1
    10    28    29   ar
    11    29    30   ar
    12    30    31   ar
    13    31    32    1
    14    31    33   ar
    15    33    34    1
    16    33    35   ar
    17     1     2   am
    18     2     3    2
    19     2     4    1
    20     4     5   ar
    21     5     6   ar
    22     6     7   ar
    23     7     8   ar
    24     8     9   ar
    25     9    10    1
    26     9    11   ar
    27    11    12   ar
    28    12    13   ar
    29    20    21   ar
    30    21    22   ar
    31    22    25    1
    32    25    26    1
    33    22    17   ar
    34    35    28   ar
    35    13     4   ar
    36    12     7   ar
    37    10    14    1
    38    10    15    1
@<TRIPOS>MOLECULE
*****
 35 38 0 0 0
SMALL
GASTEIGER

@<TRIPOS>ATOM
      1 N          63.5170   89.4892   13.6296 N.am    1  UNL1       -0.2679
      2 C          63.5144   88.9830   15.0416 C.2     1  UNL1        0.2495
      3 O          63.5520   89.9521   16.1859 O.2     1  UNL1       -0.2699
      4 C          63.4742   87.5076   15.3093 C.ar    1  UNL1        0.0542
      5 C          63.1117   87.0027   16.6745 C.ar    1  UNL1        0.0061
      6 C          63.0716   85.5273   16.9421 C.ar    1  UNL1        0.0198
      7 C          63.3939   84.5569   15.8447 C.ar    1  UNL1        0.0892
      8 N          63.4368   83.0578   15.8110 N.ar    1  UNL1       -0.2245
      9 C          63.8259   82.6363   14.4251 C.ar    1  UNL1        0.1567
     10 N          63.9888   81.2242   13.9460 N.pl3   1  UNL1       -0.3375
     11 S          64.0234   83.8748   13.6022 S.2     1  UNL1       -0.0520
     12 C          63.7564   85.0618   14.4796 C.ar    1  UNL1        0.0498
     13 C          63.7966   86.5371   14.2119 C.ar    1  UNL1        0.0126
     14 H          63.8362   80.4738   14.5647 H       1  UNL1        0.1442
     15 H          64.2483   81.0478   13.0128 H       1  UNL1        0.1442
     16 C          63.5572   90.9646   13.3619 C.3     1  UNL1        0.1209
     17 C          67.0437   92.7561   11.1517 C.ar    1  UNL1        0.1724
     18 C          65.7100   92.6341   10.4760 C.ar    1  UNL1        0.0398
     19 C          64.5479   92.0370   11.2127 C.ar    1  UNL1        0.0007
     20 C          64.7194   91.5618   12.6251 C.ar    1  UNL1        0.0009
     21 C          66.0530   91.6837   13.3007 C.ar    1  UNL1        0.0374
     22 C          67.2152   92.2809   12.5640 C.ar    1  UNL1        0.1721
     23 C          68.7479   92.6740    9.1923 C.3     1  UNL1        0.2526
     24 O          68.2059   93.3532   10.4149 O.3     1  UNL1       -0.4684
     25 O          68.5488   92.4028   13.2396 O.3     1  UNL1       -0.4684
     26 C          68.6262   92.4998   14.7345 C.3     1  UNL1        0.2526
     27 C          63.4795   88.5201   12.4853 C.3     1  UNL1        0.1208
     28 C          62.4605   88.6840   11.3968 C.ar    1  UNL1       -0.0014
     29 C          61.6577   89.9477   11.3051 C.ar    1  UNL1       -0.0017
     30 C          60.6388   90.1116   10.2166 C.ar    1  UNL1        0.0120
     31 C          60.4227   89.0118    9.2197 C.ar    1  UNL1        0.0682
     32 CL         59.4037   89.1758    8.1312 Cl      1  UNL1       -0.0814
     33 C          61.2255   87.7481    9.3114 C.ar    1  UNL1        0.0679
     34 CL         61.0095   86.6483    8.3146 Cl      1  UNL1       -0.0814
     35 C          62.2444   87.5842   10.3999 C.ar    1  UNL1        0.0096
@<TRIPOS>BOND
     1    23    24    1
     2    24    17    1
     3    17    18   ar
     4    18    19   ar
     5    19    20   ar
     6    20    16    1
     7    16     1    1
     8     1    27    1
     9    27    28    1
    10    28    29   ar
    11    29    30   ar
    12    30    31   ar
    13    31    32    1
    14    31    33   ar
    15    33    34    1
    16    33    35   ar
    17     1     2   am
    18     2     3    2
    19     2     4    1
    20     4     5   ar
    21     5     6   ar
    22     6     7   ar
    23     7     8   ar
    24     8     9   ar
    25     9    10    1
    26     9    11   ar
    27    11    12   ar
    28    12    13   ar
    29    20    21   ar
    30    21    22   ar
    31    22    25    1
    32    25    26    1
    33    22    17   ar
    34    35    28   ar
    35    13     4   ar
    36    12     7   ar
    37    10    14    1
    38    10    15    1
@<TRIPOS>MOLECULE
*****
 35 38 0 0 0
SMALL
GASTEIGER

@<TRIPOS>ATOM
      1 N          62.8931   88.6239   12.0882 N.am    1  UNL1       -0.2679
      2 C          62.1533   87.6449   11.2255 C.2     1  UNL1        0.2495
      3 O          61.0676   88.1244   10.3083 O.2     1  UNL1       -0.2699
      4 C          62.4992   86.1863   11.2800 C.ar    1  UNL1        0.0542
      5 C          63.0102   85.4903   10.0535 C.ar    1  UNL1        0.0061
      6 C          63.3560   84.0318   10.1081 C.ar    1  UNL1        0.0198
      7 C          63.1910   83.2693   11.3892 C.ar    1  UNL1        0.0892
      8 N          63.4482   81.8345   11.7436 N.ar    1  UNL1       -0.2245
      9 C          63.0962   81.6439   13.1891 C.ar    1  UNL1        0.1567
     10 N          63.2006   80.3615   13.9603 N.pl3   1  UNL1       -0.3375
     11 S          62.6215   82.9607   13.7282 S.2     1  UNL1       -0.0520
     12 C          62.6800   83.9652   12.6158 C.ar    1  UNL1        0.0498
     13 C          62.3342   85.4238   12.5612 C.ar    1  UNL1        0.0126
     14 H          63.5253   79.5450   13.5162 H       1  UNL1        0.1442
     15 H          62.9444   80.3363   14.9106 H       1  UNL1        0.1442
     16 C          62.5472   90.0825   12.0336 C.3     1  UNL1        0.1209
     17 C          65.8133   93.1576   11.6776 C.ar    1  UNL1        0.1724
     18 C          65.1156   92.6586   10.4470 C.ar    1  UNL1        0.0398
     19 C          64.0269   91.6336   10.5657 C.ar    1  UNL1        0.0007
     20 C          63.6359   91.1075   11.9149 C.ar    1  UNL1        0.0009
     21 C          64.3336   91.6065   13.1454 C.ar    1  UNL1        0.0374
     22 C          65.4223   92.6316   13.0268 C.ar    1  UNL1        0.1721
     23 C          66.8758   95.1780   10.4371 C.3     1  UNL1        0.2526
     24 O          66.9019   94.1826   11.5589 O.3     1  UNL1       -0.4684
     25 O          66.1199   93.1306   14.2573 O.3     1  UNL1       -0.4684
     26 C          65.9945   92.3770   15.5482 C.3     1  UNL1        0.2526
     27 C          63.9789   88.1444   13.0053 C.3     1  UNL1        0.1208
     28 C          63.6777   87.8820   14.4512 C.ar    1  UNL1       -0.0014
     29 C          63.3634   89.0242   15.3712 C.ar    1  UNL1       -0.0017
     30 C          63.0622   88.7618   16.8170 C.ar    1  UNL1        0.0120
     31 C          63.0754   87.3570   17.3428 C.ar    1  UNL1        0.0682
     32 CL         62.7742   87.0946   18.7887 Cl      1  UNL1       -0.0814
     33 C          63.3896   86.2147   16.4229 C.ar    1  UNL1        0.0679
     34 CL         63.4027   84.8100   16.9487 Cl      1  UNL1       -0.0814
     35 C          63.6908   86.4772   14.9771 C.ar    1  UNL1        0.0096
@<TRIPOS>BOND
     1    23    24    1
     2    24    17    1
     3    17    18   ar
     4    18    19   ar
     5    19    20   ar
     6    20    16    1
     7    16     1    1
     8     1    27    1
     9    27    28    1
    10    28    29   ar
    11    29    30   ar
    12    30    31   ar
    13    31    32    1
    14    31    33   ar
    15    33    34    1
    16    33    35   ar
    17     1     2   am
    18     2     3    2
    19     2     4    1
    20     4     5   ar
    21     5     6   ar
    22     6     7   ar
    23     7     8   ar
    24     8     9   ar
    25     9    10    1
    26     9    11   ar
    27    11    12   ar
    28    12    13   ar
    29    20    21   ar
    30    21    22   ar
    31    22    25    1
    32    25    26    1
    33    22    17   ar
    34    35    28   ar
    35    13     4   ar
    36    12     7   ar
    37    10    14    1
    38    10    15    1
@<TRIPOS>MOLECULE
*****
 35 38 0 0 0
SMALL
GASTEIGER

@<TRIPOS>ATOM
      1 N          64.4304   91.4977   13.7674 N.am    1  UNL1       -0.2679
      2 C          65.8889   91.8459   13.7287 C.2     1  UNL1        0.2495
      3 O          66.7465   91.6190   14.9382 O.2     1  UNL1       -0.2699
      4 C          66.4898   92.4212   12.4804 C.ar    1  UNL1        0.0542
      5 C          67.4555   91.6088   11.6697 C.ar    1  UNL1        0.0061
      6 C          68.0564   92.1840   10.4215 C.ar    1  UNL1        0.0198
      7 C          67.6916   93.5716    9.9840 C.ar    1  UNL1        0.0892
      8 N          68.1197   94.3983    8.8079 N.ar    1  UNL1       -0.2245
      9 C          67.4185   95.7217    8.8917 C.ar    1  UNL1        0.1567
     10 N          67.5547   96.8550    7.9185 N.pl3   1  UNL1       -0.3375
     11 S          66.5571   95.7128   10.1197 S.2     1  UNL1       -0.0520
     12 C          66.7258   94.3840   10.7948 C.ar    1  UNL1        0.0498
     13 C          66.1250   93.8088   12.0430 C.ar    1  UNL1        0.0126
     14 H          68.1484   96.7651    7.1383 H       1  UNL1        0.1442
     15 H          67.0505   97.6887    8.0600 H       1  UNL1        0.1442
     16 C          63.8295   90.9225   15.0156 C.3     1  UNL1        0.1209
     17 C          63.8078   86.4684   15.6564 C.ar    1  UNL1        0.1724
     18 C          64.6176   87.0619   14.5419 C.ar    1  UNL1        0.0398
     19 C          64.6248   88.5466   14.3283 C.ar    1  UNL1        0.0007
     20 C          63.8222   89.4378   15.2292 C.ar    1  UNL1        0.0009
     21 C          63.0125   88.8444   16.3437 C.ar    1  UNL1        0.0374
     22 C          63.0052   87.3597   16.5573 C.ar    1  UNL1        0.1721
     23 C          63.6379   84.0586   14.7006 C.3     1  UNL1        0.2526
     24 O          63.8005   84.9837   15.8700 O.3     1  UNL1       -0.4684
     25 O          62.1954   86.7662   17.6717 O.3     1  UNL1       -0.4684
     26 C          62.7406   86.7508   19.0691 C.3     1  UNL1        0.2526
     27 C          63.5728   91.7247   12.5578 C.3     1  UNL1        0.1208
     28 C          62.7556   90.5993   11.9959 C.ar    1  UNL1       -0.0014
     29 C          63.3701   89.6413   11.0189 C.ar    1  UNL1       -0.0017
     30 C          62.5530   88.5159   10.4571 C.ar    1  UNL1        0.0120
     31 C          61.1213   88.3485   10.8722 C.ar    1  UNL1        0.0682
     32 CL         60.3041   87.2230   10.3103 Cl      1  UNL1       -0.0814
     33 C          60.5068   89.3065   11.8492 C.ar    1  UNL1        0.0679
     34 CL         59.0752   89.1391   12.2644 Cl      1  UNL1       -0.0814
     35 C          61.3240   90.4319   12.4111 C.ar    1  UNL1        0.0096
@<TRIPOS>BOND
     1    23    24    1
     2    24    17    1
     3    17    18   ar
     4    18    19   ar
     5    19    20   ar
     6    20    16    1
     7    16     1    1
     8     1    27    1
     9    27    28    1
    10    28    29   ar
    11    29    30   ar
    12    30    31   ar
    13    31    32    1
    14    31    33   ar
    15    33    34    1
    16    33    35   ar
    17     1     2   am
    18     2     3    2
    19     2     4    1
    20     4     5   ar
    21     5     6   ar
    22     6     7   ar
    23     7     8   ar
    24     8     9   ar
    25     9    10    1
    26     9    11   ar
    27    11    12   ar
    28    12    13   ar
    29    20    21   ar
    30    21    22   ar
    31    22    25    1
    32    25    26    1
    33    22    17   ar
    34    35    28   ar
    35    13     4   ar
    36    12     7   ar
    37    10    14    1
    38    10    15    1
@<TRIPOS>MOLECULE
*****
 35 38 0 0 0
SMALL
GASTEIGER

@<TRIPOS>ATOM
      1 N          62.3457   89.1743   12.2642 N.am    1  UNL1       -0.2679
      2 C          61.0790   89.3026   11.4712 C.2     1  UNL1        0.2495
      3 O          60.0939   90.3845   11.8011 O.2     1  UNL1       -0.2699
      4 C          60.7974   88.3488   10.3481 C.ar    1  UNL1        0.0542
      5 C          59.4056   88.2214    9.8036 C.ar    1  UNL1        0.0061
      6 C          59.1241   87.2677    8.6806 C.ar    1  UNL1        0.0198
      7 C          60.2343   86.4414    8.1021 C.ar    1  UNL1        0.0892
      8 N          60.2592   85.4246    6.9996 N.ar    1  UNL1       -0.2245
      9 C          61.6664   84.9237    6.8627 C.ar    1  UNL1        0.1567
     10 N          62.1449   83.8959    5.8804 N.pl3   1  UNL1       -0.3375
     11 S          62.5112   85.6308    7.8807 S.2     1  UNL1       -0.0520
     12 C          61.6261   86.5688    8.6467 C.ar    1  UNL1        0.0498
     13 C          61.9077   87.5225    9.7697 C.ar    1  UNL1        0.0126
     14 H          61.5108   83.4862    5.2485 H       1  UNL1        0.1442
     15 H          63.0930   83.6311    5.8676 H       1  UNL1        0.1442
     16 C          62.6273   90.1280   13.3873 C.3     1  UNL1        0.1209
     17 C          66.6490   92.1243   13.6887 C.ar    1  UNL1        0.1724
     18 C          66.1484   91.2720   14.8169 C.ar    1  UNL1        0.0398
     19 C          64.8078   90.6065   14.7165 C.ar    1  UNL1        0.0007
     20 C          63.9679   90.7935   13.4877 C.ar    1  UNL1        0.0009
     21 C          64.4686   91.6458   12.3595 C.ar    1  UNL1        0.0374
     22 C          65.8092   92.3112   12.4600 C.ar    1  UNL1        0.1721
     23 C          68.7259   92.7998   15.0959 C.3     1  UNL1        0.2526
     24 O          67.9896   92.7897   13.7891 O.3     1  UNL1       -0.4684
     25 O          66.3098   93.1635   11.3318 O.3     1  UNL1       -0.4684
     26 C          66.1548   94.6543   11.3921 C.3     1  UNL1        0.2526
     27 C          63.3308   88.0923   11.9343 C.3     1  UNL1        0.1208
     28 C          63.4654   86.9004   12.8351 C.ar    1  UNL1       -0.0014
     29 C          64.1257   87.0432   14.1743 C.ar    1  UNL1       -0.0017
     30 C          64.2603   85.8513   15.0750 C.ar    1  UNL1        0.0120
     31 C          63.7345   84.5167   14.6365 C.ar    1  UNL1        0.0682
     32 CL         63.8691   83.3248   15.5373 Cl      1  UNL1       -0.0814
     33 C          63.0742   84.3739   13.2973 C.ar    1  UNL1        0.0679
     34 CL         62.5484   83.0393   12.8588 Cl      1  UNL1       -0.0814
     35 C          62.9396   85.5658   12.3966 C.ar    1  UNL1        0.0096
@<TRIPOS>BOND
     1    23    24    1
     2    24    17    1
     3    17    18   ar
     4    18    19   ar
     5    19    20   ar
     6    20    16    1
     7    16     1    1
     8     1    27    1
     9    27    28    1
    10    28    29   ar
    11    29    30   ar
    12    30    31   ar
    13    31    32    1
    14    31    33   ar
    15    33    34    1
    16    33    35   ar
    17     1     2   am
    18     2     3    2
    19     2     4    1
    20     4     5   ar
    21     5     6   ar
    22     6     7   ar
    23     7     8   ar
    24     8     9   ar
    25     9    10    1
    26     9    11   ar
    27    11    12   ar
    28    12    13   ar
    29    20    21   ar
    30    21    22   ar
    31    22    25    1
    32    25    26    1
    33    22    17   ar
    34    35    28   ar
    35    13     4   ar
    36    12     7   ar
    37    10    14    1
    38    10    15    1
@<TRIPOS>MOLECULE
*****
 35 38 0 0 0
SMALL
GASTEIGER

@<TRIPOS>ATOM
      1 N          62.5678   88.6668   12.1489 N.am    1  UNL1       -0.2679
      2 C          62.5434   90.0911   11.6791 C.2     1  UNL1        0.2495
      3 O          61.3654   90.6057   10.9061 O.2     1  UNL1       -0.2699
      4 C          63.6969   91.0008   11.9822 C.ar    1  UNL1        0.0542
      5 C          64.3015   91.8343   10.8915 C.ar    1  UNL1        0.0061
      6 C          65.4550   92.7439   11.1947 C.ar    1  UNL1        0.0198
      7 C          66.0039   92.8201   12.5886 C.ar    1  UNL1        0.0892
      8 N          67.1255   93.6190   13.1833 N.ar    1  UNL1       -0.2245
      9 C          67.2141   93.2793   14.6416 C.ar    1  UNL1        0.1567
     10 N          68.1970   93.8485   15.6215 N.pl3   1  UNL1       -0.3375
     11 S          66.1472   92.2704   14.9481 S.2     1  UNL1       -0.0520
     12 C          65.3993   91.9866   13.6793 C.ar    1  UNL1        0.0498
     13 C          64.2458   91.0770   13.3761 C.ar    1  UNL1        0.0126
     14 H          68.8632   94.5090   15.3231 H       1  UNL1        0.1442
     15 H          68.1758   93.5615   16.5630 H       1  UNL1        0.1442
     16 C          61.4143   87.7571   11.8458 C.3     1  UNL1        0.1209
     17 C          60.9847   85.9590    7.7430 C.ar    1  UNL1        0.1724
     18 C          62.0603   85.4700    8.6674 C.ar    1  UNL1        0.0398
     19 C          62.2034   86.0694   10.0349 C.ar    1  UNL1        0.0007
     20 C          61.2711   87.1577   10.4782 C.ar    1  UNL1        0.0009
     21 C          60.1957   87.6466    9.5539 C.ar    1  UNL1        0.0374
     22 C          60.0525   87.0472    8.1863 C.ar    1  UNL1        0.1721
     23 C          61.8431   84.3549    5.8883 C.3     1  UNL1        0.2526
     24 O          60.8416   85.3596    6.3755 O.3     1  UNL1       -0.4684
     25 O          58.9770   87.5361    7.2620 O.3     1  UNL1       -0.4684
     26 C          59.0062   88.9487    6.7581 C.3     1  UNL1        0.2526
     27 C          63.7458   88.1521   12.9219 C.3     1  UNL1        0.1208
     28 C          63.7089   86.7757   13.5171 C.ar    1  UNL1       -0.0014
     29 C          64.1289   86.5630   14.9413 C.ar    1  UNL1       -0.0017
     30 C          64.0920   85.1866   15.5364 C.ar    1  UNL1        0.0120
     31 C          63.6351   84.0230   14.7074 C.ar    1  UNL1        0.0682
     32 CL         63.5982   82.6466   15.3026 Cl      1  UNL1       -0.0814
     33 C          63.2151   84.2358   13.2832 C.ar    1  UNL1        0.0679
     34 CL         62.7582   83.0722   12.4542 Cl      1  UNL1       -0.0814
     35 C          63.2520   85.6121   12.6881 C.ar    1  UNL1        0.0096
@<TRIPOS>BOND
     1    23    24    1
     2    24    17    1
     3    17    18   ar
     4    18    19   ar
     5    19    20   ar
     6    20    16    1
     7    16     1    1
     8     1    27    1
     9    27    28    1
    10    28    29   ar
    11    29    30   ar
    12    30    31   ar
    13    31    32    1
    14    31    33   ar
    15    33    34    1
    16    33    35   ar
    17     1     2   am
    18     2     3    2
    19     2     4    1
    20     4     5   ar
    21     5     6   ar
    22     6     7   ar
    23     7     8   ar
    24     8     9   ar
    25     9    10    1
    26     9    11   ar
    27    11    12   ar
    28    12    13   ar
    29    20    21   ar
    30    21    22   ar
    31    22    25    1
    32    25    26    1
    33    22    17   ar
    34    35    28   ar
    35    13     4   ar
    36    12     7   ar
    37    10    14    1
    38    10    15    1
@<TRIPOS>MOLECULE
*****
 35 38 0 0 0
SMALL
GASTEIGER

@<TRIPOS>ATOM
      1 N          62.1508   88.7895   11.5329 N.am    1  UNL1       -0.2679
      2 C          62.0993   90.2886   11.5214 C.2     1  UNL1        0.2495
      3 O          60.8159   90.9924   11.1936 O.2     1  UNL1       -0.2699
      4 C          63.3312   91.0839   11.8378 C.ar    1  UNL1        0.0542
      5 C          64.0444   91.8274   10.7476 C.ar    1  UNL1        0.0061
      6 C          65.2762   92.6226   11.0640 C.ar    1  UNL1        0.0198
      7 C          65.7949   92.6743   12.4706 C.ar    1  UNL1        0.0892
      8 N          66.9765   93.3691   13.0797 N.ar    1  UNL1       -0.2245
      9 C          66.9936   93.0550   14.5463 C.ar    1  UNL1        0.1567
     10 N          68.0042   93.5440   15.5411 N.pl3   1  UNL1       -0.3375
     11 S          65.8225   92.1660   14.8436 S.2     1  UNL1       -0.0520
     12 C          65.0817   91.9308   13.5607 C.ar    1  UNL1        0.0498
     13 C          63.8498   91.1355   13.2443 C.ar    1  UNL1        0.0126
     14 H          68.7413   94.1271   15.2479 H       1  UNL1        0.1442
     15 H          67.9305   93.2818   16.4872 H       1  UNL1        0.1442
     16 C          60.9189   87.9943   11.2165 C.3     1  UNL1        0.1209
     17 C          60.7717   85.4554    7.5041 C.ar    1  UNL1        0.1724
     18 C          59.6529   86.4078    7.8062 C.ar    1  UNL1        0.0398
     19 C          59.7019   87.2541    9.0436 C.ar    1  UNL1        0.0007
     20 C          60.8698   87.1480    9.9790 C.ar    1  UNL1        0.0009
     21 C          61.9885   86.1955    9.6769 C.ar    1  UNL1        0.0374
     22 C          61.9394   85.3492    8.4394 C.ar    1  UNL1        0.1721
     23 C          61.9706   84.3747    5.4683 C.3     1  UNL1        0.2526
     24 O          60.7226   84.6091    6.2666 O.3     1  UNL1       -0.4684
     25 O          63.0581   84.3968    8.1373 O.3     1  UNL1       -0.4684
     26 C          63.8272   83.7632    9.2586 C.3     1  UNL1        0.2526
     27 C          63.4342   88.0857   11.8607 C.3     1  UNL1        0.1208
     28 C          63.4451   86.9787   12.8729 C.ar    1  UNL1       -0.0014
     29 C          63.9472   87.2378   14.2624 C.ar    1  UNL1       -0.0017
     30 C          63.9581   86.1308   15.2745 C.ar    1  UNL1        0.0120
     31 C          63.4669   84.7647   14.8971 C.ar    1  UNL1        0.0682
     32 CL         63.4778   83.6577   15.9093 Cl      1  UNL1       -0.0814
     33 C          62.9648   84.5056   13.5076 C.ar    1  UNL1        0.0679
     34 CL         62.4736   83.1394   13.1303 Cl      1  UNL1       -0.0814
     35 C          62.9539   85.6125   12.4955 C.ar    1  UNL1        0.0096
@<TRIPOS>BOND
     1    23    24    1
     2    24    17    1
     3    17    18   ar
     4    18    19   ar
     5    19    20   ar
     6    20    16    1
     7    16     1    1
     8     1    27    1
     9    27    28    1
    10    28    29   ar
    11    29    30   ar
    12    30    31   ar
    13    31    32    1
    14    31    33   ar
    15    33    34    1
    16    33    35   ar
    17     1     2   am
    18     2     3    2
    19     2     4    1
    20     4     5   ar
    21     5     6   ar
    22     6     7   ar
    23     7     8   ar
    24     8     9   ar
    25     9    10    1
    26     9    11   ar
    27    11    12   ar
    28    12    13   ar
    29    20    21   ar
    30    21    22   ar
    31    22    25    1
    32    25    26    1
    33    22    17   ar
    34    35    28   ar
    35    13     4   ar
    36    12     7   ar
    37    10    14    1
    38    10    15    1
