@<TRIPOS>MOLECULE
*****
 43 47 0 0 0
SMALL
GASTEIGER

@<TRIPOS>ATOM
      1 C          62.9101   86.0720   13.4228 C.ar    1  UNL1        0.2443
      2 N          63.0859   87.5007   13.8449 N.ar    1  UNL1       -0.1953
      3 C          64.2455   87.8888   14.7136 C.ar    1  UNL1        0.1354
      4 C          65.2293   86.8483   15.1604 C.ar    1  UNL1        0.0359
      5 C          65.0534   85.4197   14.7383 C.ar    1  UNL1        0.0221
      6 C          63.8938   85.0316   13.8696 C.ar    1  UNL1        0.1024
      7 N          63.7180   83.6029   13.4475 N.pl3   1  UNL1       -0.2991
      8 C          64.6677   82.9898   12.4616 C.3     1  UNL1        0.1232
      9 C          64.4919   81.5612   12.0396 C.3     1  UNL1        0.1636
     10 O          63.3664   80.7457   12.6036 O.3     1  UNL1       -0.3501
     11 C          62.4167   81.3587   13.5896 C.3     1  UNL1        0.1636
     12 C          62.5925   82.7873   14.0116 C.3     1  UNL1        0.1232
     13 N          64.4213   89.3174   15.1357 N.pl3   1  UNL1       -0.2955
     14 H          64.2233   89.5849   16.0622 H       1  UNL1        0.1537
     15 C          64.8988   90.3384   14.1460 C.ar    1  UNL1        0.0839
     16 C          66.2676   90.9358   14.2860 C.ar    1  UNL1        0.0190
     17 C          66.7452   91.9568   13.2962 C.ar    1  UNL1        0.0160
     18 C          65.8539   92.3805   12.1666 C.ar    1  UNL1        0.0510
     19 C          64.4851   91.7832   12.0267 C.ar    1  UNL1        0.0527
     20 C          64.0076   90.7622   13.0163 C.ar    1  UNL1        0.1532
     21 N          66.3314   93.4016   11.1769 N.pl3   1  UNL1       -0.3046
     22 C          67.2242   92.9883   10.0446 C.3     1  UNL1        0.1081
     23 C          67.7017   94.0092    9.0549 C.3     1  UNL1        0.0938
     24 N          67.2864   95.4435    9.1975 N.3     1  UNL1       -0.2686
     25 C          67.7639   96.4645    8.2077 C.3     1  UNL1        0.0897
     26 C          66.3936   95.8568   10.3298 C.3     1  UNL1        0.0938
     27 C          65.9161   94.8358   11.3195 C.3     1  UNL1        0.1081
     28 O          62.6388   90.1648   12.8763 O.3     1  UNL1       -0.4701
     29 C          61.8882   90.3040   11.5852 C.3     1  UNL1        0.2525
     30 O          61.7505   85.6839   12.5541 O.3     1  UNL1       -0.4350
     31 C          61.1530   86.0563    8.6484 C.ar    1  UNL1        0.0496
     32 C          60.9666   86.1947   10.1303 C.ar    1  UNL1        0.0519
     33 C          61.9370   85.5455   11.0721 C.ar    1  UNL1        0.1485
     34 C          63.0937   84.7580   10.5320 C.ar    1  UNL1        0.0373
     35 C          63.2801   84.6196    9.0501 C.ar    1  UNL1        0.0001
     36 C          62.3097   85.2688    8.1083 C.ar    1  UNL1       -0.0082
     37 C          62.4962   85.1304    6.6263 C.3     1  UNL1        0.0323
     38 C          59.9192   88.1792    7.7993 C.2     1  UNL1        0.2496
     39 O          60.6260   89.0038    8.8340 O.2     1  UNL1       -0.2698
     40 N          60.1827   86.7055    7.7066 N.am    1  UNL1       -0.2805
     41 H          59.7188   86.1643    7.0275 H       1  UNL1        0.1552
     42 C          59.3922   89.9729    5.9952 C.2     1  UNL1        0.0048
     43 C          58.9489   88.8284    6.8575 C.2     1  UNL1        0.0580
@<TRIPOS>BOND
     1    42    43    2
     2    43    38    1
     3    38    39    2
     4    38    40   am
     5    40    31    1
     6    31    32   ar
     7    32    33   ar
     8    33    30    1
     9    30     1    1
    10     1     2   ar
    11     2     3   ar
    12     3    13    1
    13    13    15    1
    14    15    16   ar
    15    16    17   ar
    16    17    18   ar
    17    18    21    1
    18    21    22    1
    19    22    23    1
    20    23    24    1
    21    24    25    1
    22    24    26    1
    23    26    27    1
    24    18    19   ar
    25    19    20   ar
    26    20    28    1
    27    28    29    1
    28     3     4   ar
    29     4     5   ar
    30     5     6   ar
    31     6     7    1
    32     7     8    1
    33     8     9    1
    34     9    10    1
    35    10    11    1
    36    11    12    1
    37    33    34   ar
    38    34    35   ar
    39    35    36   ar
    40    36    37    1
    41    36    31   ar
    42     6     1   ar
    43    12     7    1
    44    20    15   ar
    45    27    21    1
    46    40    41    1
    47    13    14    1
@<TRIPOS>MOLECULE
*****
 43 47 0 0 0
SMALL
GASTEIGER

@<TRIPOS>ATOM
      1 C          62.9055   86.3103   13.3550 C.ar    1  UNL1        0.2443
      2 N          63.0839   87.7535   13.7230 N.ar    1  UNL1       -0.1953
      3 C          64.2464   88.1724   14.5733 C.ar    1  UNL1        0.1354
      4 C          65.2305   87.1482   15.0557 C.ar    1  UNL1        0.0359
      5 C          65.0520   85.7050   14.6878 C.ar    1  UNL1        0.0221
      6 C          63.8895   85.2861   13.8374 C.ar    1  UNL1        0.1024
      7 N          63.7110   83.8428   13.4695 N.pl3   1  UNL1       -0.2991
      8 C          62.5733   83.0561   14.0496 C.3     1  UNL1        0.1232
      9 C          62.3949   81.6129   13.6817 C.3     1  UNL1        0.1636
     10 O          63.3542   80.9565   12.7335 O.3     1  UNL1       -0.3501
     11 C          64.4918   81.7433   12.1533 C.3     1  UNL1        0.1636
     12 C          64.6702   83.1865   12.5213 C.3     1  UNL1        0.1232
     13 N          64.4249   89.6156   14.9413 N.pl3   1  UNL1       -0.2955
     14 H          64.2528   89.9133   15.8637 H       1  UNL1        0.1537
     15 C          64.8657   90.6051   13.9037 C.ar    1  UNL1        0.0839
     16 C          64.0399   90.8156   12.6694 C.ar    1  UNL1        0.0190
     17 C          64.4807   91.8052   11.6318 C.ar    1  UNL1        0.0160
     18 C          65.7474   92.5842   11.8286 C.ar    1  UNL1        0.0510
     19 C          66.5732   92.3737   13.0630 C.ar    1  UNL1        0.0527
     20 C          66.1324   91.3842   14.1005 C.ar    1  UNL1        0.1532
     21 N          66.1882   93.5737   10.7910 N.pl3   1  UNL1       -0.3046
     22 C          65.6161   94.9603   10.7862 C.3     1  UNL1        0.1081
     23 C          66.0569   95.9499    9.7487 C.3     1  UNL1        0.0938
     24 N          67.0698   95.5528    8.7161 N.3     1  UNL1       -0.2686
     25 C          67.5107   96.5424    7.6785 C.3     1  UNL1        0.0897
     26 C          67.6419   94.1662    8.7209 C.3     1  UNL1        0.0938
     27 C          67.2011   93.1767    9.7584 C.3     1  UNL1        0.1081
     28 O          66.9582   91.1736   15.3349 O.3     1  UNL1       -0.4701
     29 C          67.9610   92.2083   15.7519 C.3     1  UNL1        0.2525
     30 O          61.7430   85.8913   12.5047 O.3     1  UNL1       -0.4350
     31 C          61.1624   86.1671    8.5884 C.ar    1  UNL1        0.0496
     32 C          60.9811   86.3582   10.0651 C.ar    1  UNL1        0.0519
     33 C          61.9243   85.7001   11.0280 C.ar    1  UNL1        0.1485
     34 C          63.0489   84.8508   10.5142 C.ar    1  UNL1        0.0373
     35 C          63.2302   84.6596    9.0376 C.ar    1  UNL1        0.0001
     36 C          62.2870   85.3177    8.0747 C.ar    1  UNL1       -0.0082
     37 C          62.4683   85.1265    6.5980 C.3     1  UNL1        0.0323
     38 C          59.9117   88.2873    7.7578 C.2     1  UNL1        0.2496
     39 O          60.5474   89.0914    8.8530 O.2     1  UNL1       -0.2698
     40 N          60.2192   86.8252    7.6255 N.am    1  UNL1       -0.2805
     41 H          59.8019   86.2975    6.9067 H       1  UNL1        0.1552
     42 C          59.4498   90.0649    5.9201 C.2     1  UNL1        0.0048
     43 C          58.9684   88.9455    6.7949 C.2     1  UNL1        0.0580
@<TRIPOS>BOND
     1    42    43    2
     2    43    38    1
     3    38    39    2
     4    38    40   am
     5    40    31    1
     6    31    32   ar
     7    32    33   ar
     8    33    30    1
     9    30     1    1
    10     1     2   ar
    11     2     3   ar
    12     3    13    1
    13    13    15    1
    14    15    16   ar
    15    16    17   ar
    16    17    18   ar
    17    18    21    1
    18    21    22    1
    19    22    23    1
    20    23    24    1
    21    24    25    1
    22    24    26    1
    23    26    27    1
    24    18    19   ar
    25    19    20   ar
    26    20    28    1
    27    28    29    1
    28     3     4   ar
    29     4     5   ar
    30     5     6   ar
    31     6     7    1
    32     7     8    1
    33     8     9    1
    34     9    10    1
    35    10    11    1
    36    11    12    1
    37    33    34   ar
    38    34    35   ar
    39    35    36   ar
    40    36    37    1
    41    36    31   ar
    42     6     1   ar
    43    12     7    1
    44    20    15   ar
    45    27    21    1
    46    40    41    1
    47    13    14    1
@<TRIPOS>MOLECULE
*****
 43 47 0 0 0
SMALL
GASTEIGER

@<TRIPOS>ATOM
      1 C          63.6049   86.7627   13.4790 C.ar    1  UNL1        0.2443
      2 N          63.7602   88.2327   13.7346 N.ar    1  UNL1       -0.1953
      3 C          63.8469   88.7442   15.1420 C.ar    1  UNL1        0.1354
      4 C          63.7783   87.7857   16.2939 C.ar    1  UNL1        0.0359
      5 C          63.6230   86.3159   16.0383 C.ar    1  UNL1        0.0221
      6 C          63.5363   85.8044   14.6308 C.ar    1  UNL1        0.1024
      7 N          63.3810   84.3344   14.3753 N.pl3   1  UNL1       -0.2991
      8 C          64.4547   83.5824   13.6462 C.3     1  UNL1        0.1232
      9 C          64.2994   82.1125   13.3907 C.3     1  UNL1        0.1636
     10 O          63.0704   81.3947   13.8643 O.3     1  UNL1       -0.3501
     11 C          61.9967   82.1467   14.5933 C.3     1  UNL1        0.1636
     12 C          62.1520   83.6166   14.8488 C.3     1  UNL1        0.1232
     13 N          64.0022   90.2140   15.3976 N.pl3   1  UNL1       -0.2955
     14 H          63.7579   90.5897   16.2741 H       1  UNL1        0.1537
     15 C          64.5297   91.1114   14.3176 C.ar    1  UNL1        0.0839
     16 C          63.9313   91.0625   12.9430 C.ar    1  UNL1        0.0190
     17 C          64.4588   91.9600   11.8630 C.ar    1  UNL1        0.0160
     18 C          65.5848   92.9062   12.1576 C.ar    1  UNL1        0.0510
     19 C          66.1832   92.9551   13.5322 C.ar    1  UNL1        0.0527
     20 C          65.6557   92.0577   14.6122 C.ar    1  UNL1        0.1532
     21 N          66.1123   93.8037   11.0776 N.pl3   1  UNL1       -0.3046
     22 C          67.0737   93.2665   10.0592 C.3     1  UNL1        0.1081
     23 C          67.6013   94.1638    8.9792 C.3     1  UNL1        0.0938
     24 N          67.1675   95.5984    8.9177 N.3     1  UNL1       -0.2686
     25 C          67.6950   96.4958    7.8377 C.3     1  UNL1        0.0897
     26 C          66.2061   96.1356    9.9361 C.3     1  UNL1        0.0938
     27 C          65.6786   95.2382   11.0161 C.3     1  UNL1        0.1081
     28 O          66.2541   92.1066   15.9868 O.3     1  UNL1       -0.4701
     29 C          67.6751   92.5501   16.1708 C.3     1  UNL1        0.2525
     30 O          63.5182   86.2512   12.0716 O.3     1  UNL1       -0.4350
     31 C          61.1508   86.7689    8.9287 C.ar    1  UNL1        0.0496
     32 C          62.0914   86.1254    9.9040 C.ar    1  UNL1        0.0519
     33 C          62.5776   86.8948   11.0963 C.ar    1  UNL1        0.1485
     34 C          62.1234   88.3078   11.3133 C.ar    1  UNL1        0.0373
     35 C          61.1828   88.9513   10.3380 C.ar    1  UNL1        0.0001
     36 C          60.6966   88.1819    9.1457 C.ar    1  UNL1       -0.0082
     37 C          59.7560   88.8255    8.1704 C.3     1  UNL1        0.0323
     38 C          61.5758   85.0261    7.0494 C.2     1  UNL1        0.2496
     39 O          62.9734   84.8221    7.5546 O.2     1  UNL1       -0.2698
     40 N          60.6645   85.9995    7.7365 N.am    1  UNL1       -0.2805
     41 H          59.7473   86.1334    7.4049 H       1  UNL1        0.1552
     42 C          61.9503   84.1465    4.6336 C.2     1  UNL1        0.0048
     43 C          61.0895   84.2567    5.8571 C.2     1  UNL1        0.0580
@<TRIPOS>BOND
     1    42    43    2
     2    43    38    1
     3    38    39    2
     4    38    40   am
     5    40    31    1
     6    31    32   ar
     7    32    33   ar
     8    33    30    1
     9    30     1    1
    10     1     2   ar
    11     2     3   ar
    12     3    13    1
    13    13    15    1
    14    15    16   ar
    15    16    17   ar
    16    17    18   ar
    17    18    21    1
    18    21    22    1
    19    22    23    1
    20    23    24    1
    21    24    25    1
    22    24    26    1
    23    26    27    1
    24    18    19   ar
    25    19    20   ar
    26    20    28    1
    27    28    29    1
    28     3     4   ar
    29     4     5   ar
    30     5     6   ar
    31     6     7    1
    32     7     8    1
    33     8     9    1
    34     9    10    1
    35    10    11    1
    36    11    12    1
    37    33    34   ar
    38    34    35   ar
    39    35    36   ar
    40    36    37    1
    41    36    31   ar
    42     6     1   ar
    43    12     7    1
    44    20    15   ar
    45    27    21    1
    46    40    41    1
    47    13    14    1
@<TRIPOS>MOLECULE
*****
 43 47 0 0 0
SMALL
GASTEIGER

@<TRIPOS>ATOM
      1 C          63.5613   85.9890   13.5073 C.ar    1  UNL1        0.2443
      2 N          63.7516   87.4356   13.8558 N.ar    1  UNL1       -0.1953
      3 C          63.7822   87.8629   15.2933 C.ar    1  UNL1        0.1354
      4 C          63.6225   86.8437   16.3823 C.ar    1  UNL1        0.0359
      5 C          63.4322   85.3973   16.0337 C.ar    1  UNL1        0.0221
      6 C          63.4016   84.9699   14.5962 C.ar    1  UNL1        0.1024
      7 N          63.2112   83.5234   14.2477 N.pl3   1  UNL1       -0.2991
      8 C          64.2873   82.7813   13.5120 C.3     1  UNL1        0.1232
      9 C          64.0970   81.3349   13.1635 C.3     1  UNL1        0.1636
     10 O          62.8305   80.6305   13.5507 O.3     1  UNL1       -0.3501
     11 C          61.7544   81.3726   14.2863 C.3     1  UNL1        0.1636
     12 C          61.9448   82.8190   14.6348 C.3     1  UNL1        0.1232
     13 N          63.9726   89.3093   15.6419 N.pl3   1  UNL1       -0.2955
     14 H          63.7382   89.6339   16.5413 H       1  UNL1        0.1537
     15 C          64.5200   90.2613   14.6201 C.ar    1  UNL1        0.0839
     16 C          65.8852   90.8550   14.8036 C.ar    1  UNL1        0.0190
     17 C          66.4326   91.8069   13.7817 C.ar    1  UNL1        0.0160
     18 C          65.6148   92.1651   12.5764 C.ar    1  UNL1        0.0510
     19 C          64.2496   91.5714   12.3929 C.ar    1  UNL1        0.0527
     20 C          63.7022   90.6195   13.4147 C.ar    1  UNL1        0.1532
     21 N          66.1622   93.1171   11.5545 N.pl3   1  UNL1       -0.3046
     22 C          66.0397   94.5970   11.7665 C.3     1  UNL1        0.1081
     23 C          66.5870   95.5489   10.7447 C.3     1  UNL1        0.0938
     24 N          67.2569   95.0210    9.5109 N.3     1  UNL1       -0.2686
     25 C          67.8043   95.9730    8.4890 C.3     1  UNL1        0.0897
     26 C          67.3794   93.5411    9.2988 C.3     1  UNL1        0.0938
     27 C          66.8321   92.5892   10.3206 C.3     1  UNL1        0.1081
     28 O          62.3369   90.0258   13.2312 O.3     1  UNL1       -0.4701
     29 C          61.5446   90.3348   11.9956 C.3     1  UNL1        0.2525
     30 O          63.5306   85.5617   12.0697 O.3     1  UNL1       -0.4350
     31 C          61.3269   86.1299    8.8185 C.ar    1  UNL1        0.0496
     32 C          62.4283   85.6546    9.7189 C.ar    1  UNL1        0.0519
     33 C          62.4291   86.0372   11.1693 C.ar    1  UNL1        0.1485
     34 C          61.3285   86.8952   11.7192 C.ar    1  UNL1        0.0373
     35 C          60.2271   87.3706   10.8188 C.ar    1  UNL1        0.0001
     36 C          60.2263   86.9880    9.3684 C.ar    1  UNL1       -0.0082
     37 C          59.1248   87.4634    8.4679 C.3     1  UNL1        0.0323
     38 C          62.3852   84.8292    6.8340 C.2     1  UNL1        0.2496
     39 O          63.4452   84.2937    7.7504 O.2     1  UNL1       -0.2698
     40 N          61.3261   85.7473    7.3681 N.am    1  UNL1       -0.2805
     41 H          60.6303   86.0988    6.7667 H       1  UNL1        0.1552
     42 C          61.2153   83.7068    4.8038 C.2     1  UNL1        0.0048
     43 C          62.3843   84.4466    5.3836 C.2     1  UNL1        0.0580
@<TRIPOS>BOND
     1    42    43    2
     2    43    38    1
     3    38    39    2
     4    38    40   am
     5    40    31    1
     6    31    32   ar
     7    32    33   ar
     8    33    30    1
     9    30     1    1
    10     1     2   ar
    11     2     3   ar
    12     3    13    1
    13    13    15    1
    14    15    16   ar
    15    16    17   ar
    16    17    18   ar
    17    18    21    1
    18    21    22    1
    19    22    23    1
    20    23    24    1
    21    24    25    1
    22    24    26    1
    23    26    27    1
    24    18    19   ar
    25    19    20   ar
    26    20    28    1
    27    28    29    1
    28     3     4   ar
    29     4     5   ar
    30     5     6   ar
    31     6     7    1
    32     7     8    1
    33     8     9    1
    34     9    10    1
    35    10    11    1
    36    11    12    1
    37    33    34   ar
    38    34    35   ar
    39    35    36   ar
    40    36    37    1
    41    36    31   ar
    42     6     1   ar
    43    12     7    1
    44    20    15   ar
    45    27    21    1
    46    40    41    1
    47    13    14    1
@<TRIPOS>MOLECULE
*****
 43 47 0 0 0
SMALL
GASTEIGER

@<TRIPOS>ATOM
      1 C          60.9833   87.8544    9.9529 C.ar    1  UNL1        0.2443
      2 N          60.0890   88.7645    9.1642 N.ar    1  UNL1       -0.1953
      3 C          59.4610   88.2803    7.8909 C.ar    1  UNL1        0.1354
      4 C          59.7274   86.8859    7.4064 C.ar    1  UNL1        0.0359
      5 C          60.6216   85.9758    8.1950 C.ar    1  UNL1        0.0221
      6 C          61.2496   86.4600    9.4683 C.ar    1  UNL1        0.1024
      7 N          62.1439   85.5499   10.2569 N.pl3   1  UNL1       -0.2991
      8 C          63.1158   84.6542    9.5477 C.3     1  UNL1        0.1232
      9 C          64.0100   83.7441   10.3363 C.3     1  UNL1        0.1636
     10 O          63.9323   83.7296   11.8342 O.3     1  UNL1       -0.3501
     11 C          62.9603   84.6253   12.5435 C.3     1  UNL1        0.1636
     12 C          62.0661   85.5354   11.7548 C.3     1  UNL1        0.1232
     13 N          58.5668   89.1904    7.1023 N.pl3   1  UNL1       -0.2955
     14 H          57.5967   89.1940    7.2702 H       1  UNL1        0.1537
     15 C          59.1506   90.0950    6.0579 C.ar    1  UNL1        0.0839
     16 C          60.6192   90.0435    5.7570 C.ar    1  UNL1        0.0190
     17 C          61.2030   90.9482    4.7125 C.ar    1  UNL1        0.0160
     18 C          60.3181   91.9043    3.9690 C.ar    1  UNL1        0.0510
     19 C          58.8495   91.9558    4.2699 C.ar    1  UNL1        0.0527
     20 C          58.2657   91.0512    5.3143 C.ar    1  UNL1        0.1532
     21 N          60.9019   92.8089    2.9245 N.pl3   1  UNL1       -0.3046
     22 C          62.3301   92.6391    2.4986 C.3     1  UNL1        0.1081
     23 C          62.9139   93.5437    1.4542 C.3     1  UNL1        0.0938
     24 N          62.0695   94.6181    0.8356 N.3     1  UNL1       -0.2686
     25 C          62.6532   95.5228   -0.2088 C.3     1  UNL1        0.0897
     26 C          60.6413   94.7879    1.2616 C.3     1  UNL1        0.0938
     27 C          60.0575   93.8833    2.3060 C.3     1  UNL1        0.1081
     28 O          56.7971   91.1027    5.6151 O.3     1  UNL1       -0.4701
     29 C          55.8387   91.6251    4.5864 C.3     1  UNL1        0.2525
     30 O          61.6112   88.3386   11.2261 O.3     1  UNL1       -0.4350
     31 C          64.3999   90.9374   12.3306 C.ar    1  UNL1        0.0496
     32 C          63.4726   89.7586   12.3527 C.ar    1  UNL1        0.0519
     33 C          62.5386   89.5175   11.2040 C.ar    1  UNL1        0.1485
     34 C          62.5318   90.4551   10.0332 C.ar    1  UNL1        0.0373
     35 C          63.4591   91.6339   10.0112 C.ar    1  UNL1        0.0001
     36 C          64.3931   91.8751   11.1598 C.ar    1  UNL1       -0.0082
     37 C          65.3204   93.0539   11.1377 C.3     1  UNL1        0.0323
     38 C          64.7845   91.4590   14.8465 C.2     1  UNL1        0.2496
     39 O          63.3010   91.4983   15.0652 O.2     1  UNL1       -0.2698
     40 N          65.3339   91.1786   13.4793 N.am    1  UNL1       -0.2805
     41 H          66.3076   91.1528   13.3358 H       1  UNL1        0.1552
     42 C          66.7472   92.7886   15.9096 C.2     1  UNL1        0.0048
     43 C          65.7185   91.7001   15.9952 C.2     1  UNL1        0.0580
@<TRIPOS>BOND
     1    42    43    2
     2    43    38    1
     3    38    39    2
     4    38    40   am
     5    40    31    1
     6    31    32   ar
     7    32    33   ar
     8    33    30    1
     9    30     1    1
    10     1     2   ar
    11     2     3   ar
    12     3    13    1
    13    13    15    1
    14    15    16   ar
    15    16    17   ar
    16    17    18   ar
    17    18    21    1
    18    21    22    1
    19    22    23    1
    20    23    24    1
    21    24    25    1
    22    24    26    1
    23    26    27    1
    24    18    19   ar
    25    19    20   ar
    26    20    28    1
    27    28    29    1
    28     3     4   ar
    29     4     5   ar
    30     5     6   ar
    31     6     7    1
    32     7     8    1
    33     8     9    1
    34     9    10    1
    35    10    11    1
    36    11    12    1
    37    33    34   ar
    38    34    35   ar
    39    35    36   ar
    40    36    37    1
    41    36    31   ar
    42     6     1   ar
    43    12     7    1
    44    20    15   ar
    45    27    21    1
    46    40    41    1
    47    13    14    1
@<TRIPOS>MOLECULE
*****
 43 47 0 0 0
SMALL
GASTEIGER

@<TRIPOS>ATOM
      1 C          63.6692   86.3019   13.4127 C.ar    1  UNL1        0.2443
      2 N          63.8340   87.7636   13.7066 N.ar    1  UNL1       -0.1953
      3 C          63.8173   88.2498   15.1255 C.ar    1  UNL1        0.1354
      4 C          63.6357   87.2743   16.2505 C.ar    1  UNL1        0.0359
      5 C          63.4709   85.8127   15.9565 C.ar    1  UNL1        0.0221
      6 C          63.4877   85.3265   14.5376 C.ar    1  UNL1        0.1024
      7 N          63.3228   83.8648   14.2437 N.pl3   1  UNL1       -0.2991
      8 C          62.1095   83.1330   14.7358 C.3     1  UNL1        0.1232
      9 C          61.9447   81.6713   14.4419 C.3     1  UNL1        0.1636
     10 O          62.9933   80.9415   13.6559 O.3     1  UNL1       -0.3501
     11 C          64.2067   81.6733   13.1638 C.3     1  UNL1        0.1636
     12 C          64.3714   83.1349   13.4577 C.3     1  UNL1        0.1232
     13 N          63.9820   89.7115   15.4194 N.pl3   1  UNL1       -0.2955
     14 H          63.7573   90.0626   16.3113 H       1  UNL1        0.1537
     15 C          64.4893   90.6380   14.3545 C.ar    1  UNL1        0.0839
     16 C          64.0035   90.4954   12.9425 C.ar    1  UNL1        0.0190
     17 C          64.5107   91.4220   11.8776 C.ar    1  UNL1        0.0160
     18 C          65.5038   92.4913   12.2246 C.ar    1  UNL1        0.0510
     19 C          65.9896   92.6340   13.6366 C.ar    1  UNL1        0.0527
     20 C          65.4823   91.7074   14.7015 C.ar    1  UNL1        0.1532
     21 N          66.0110   93.4180   11.1597 N.pl3   1  UNL1       -0.3046
     22 C          66.8456   92.8820   10.0344 C.3     1  UNL1        0.1081
     23 C          67.3528   93.8086    8.9695 C.3     1  UNL1        0.0938
     24 N          67.0256   95.2711    9.0299 N.3     1  UNL1       -0.2686
     25 C          67.5328   96.1978    7.9649 C.3     1  UNL1        0.0897
     26 C          66.1911   95.8072   10.1551 C.3     1  UNL1        0.0938
     27 C          65.6838   94.8806   11.2201 C.3     1  UNL1        0.1081
     28 O          65.9681   91.8501   16.1135 O.3     1  UNL1       -0.4701
     29 C          67.2709   92.5393   16.3924 C.3     1  UNL1        0.2525
     30 O          63.6860   85.8156   11.9938 O.3     1  UNL1       -0.4350
     31 C          60.3748   87.4908   10.5867 C.ar    1  UNL1        0.0496
     32 C          61.4829   87.1099   11.5231 C.ar    1  UNL1        0.0519
     33 C          62.5778   86.1966   11.0573 C.ar    1  UNL1        0.1485
     34 C          62.5646   85.6642    9.6550 C.ar    1  UNL1        0.0373
     35 C          61.4564   86.0451    8.7186 C.ar    1  UNL1        0.0001
     36 C          60.3615   86.9584    9.1845 C.ar    1  UNL1       -0.0082
     37 C          59.2534   87.3394    8.2480 C.3     1  UNL1        0.0323
     38 C          59.5873   89.8334   11.3880 C.2     1  UNL1        0.2496
     39 O          60.9898   90.3495   11.2576 O.2     1  UNL1       -0.2698
     40 N          59.2798   88.4042   11.0526 N.am    1  UNL1       -0.2805
     41 H          58.3594   88.0655   11.1381 H       1  UNL1        0.1552
     42 C          58.6035   92.2259   11.6301 C.2     1  UNL1        0.0048
     43 C          58.4924   90.7468   11.8538 C.2     1  UNL1        0.0580
@<TRIPOS>BOND
     1    42    43    2
     2    43    38    1
     3    38    39    2
     4    38    40   am
     5    40    31    1
     6    31    32   ar
     7    32    33   ar
     8    33    30    1
     9    30     1    1
    10     1     2   ar
    11     2     3   ar
    12     3    13    1
    13    13    15    1
    14    15    16   ar
    15    16    17   ar
    16    17    18   ar
    17    18    21    1
    18    21    22    1
    19    22    23    1
    20    23    24    1
    21    24    25    1
    22    24    26    1
    23    26    27    1
    24    18    19   ar
    25    19    20   ar
    26    20    28    1
    27    28    29    1
    28     3     4   ar
    29     4     5   ar
    30     5     6   ar
    31     6     7    1
    32     7     8    1
    33     8     9    1
    34     9    10    1
    35    10    11    1
    36    11    12    1
    37    33    34   ar
    38    34    35   ar
    39    35    36   ar
    40    36    37    1
    41    36    31   ar
    42     6     1   ar
    43    12     7    1
    44    20    15   ar
    45    27    21    1
    46    40    41    1
    47    13    14    1
@<TRIPOS>MOLECULE
*****
 43 47 0 0 0
SMALL
GASTEIGER

@<TRIPOS>ATOM
      1 C          62.3616   86.6515   10.3235 C.ar    1  UNL1        0.2443
      2 N          62.3856   87.6182   11.4702 N.ar    1  UNL1       -0.1953
      3 C          61.4896   88.8211   11.4559 C.ar    1  UNL1        0.1354
      4 C          60.5695   89.0573   10.2950 C.ar    1  UNL1        0.0359
      5 C          60.5455   88.0905    9.1483 C.ar    1  UNL1        0.0221
      6 C          61.4415   86.8876    9.1626 C.ar    1  UNL1        0.1024
      7 N          61.4175   85.9209    8.0159 N.pl3   1  UNL1       -0.2991
      8 C          60.1213   85.5998    7.3327 C.3     1  UNL1        0.1232
      9 C          60.0973   84.6330    6.1861 C.3     1  UNL1        0.1636
     10 O          61.3694   83.9875    5.7226 O.3     1  UNL1       -0.3501
     11 C          62.6656   84.3086    6.4057 C.3     1  UNL1        0.1636
     12 C          62.6896   85.2753    7.5524 C.3     1  UNL1        0.1232
     13 N          61.5136   89.7879   12.6026 N.pl3   1  UNL1       -0.2955
     14 H          60.6772   90.0241   13.0649 H       1  UNL1        0.1537
     15 C          62.8122   90.3946   13.0449 C.ar    1  UNL1        0.0839
     16 C          63.6716   91.1284   12.0585 C.ar    1  UNL1        0.0190
     17 C          64.9702   91.7352   12.5009 C.ar    1  UNL1        0.0160
     18 C          65.4093   91.6081   13.9295 C.ar    1  UNL1        0.0510
     19 C          64.5498   90.8744   14.9158 C.ar    1  UNL1        0.0527
     20 C          63.2513   90.2676   14.4736 C.ar    1  UNL1        0.1532
     21 N          66.7078   92.2149   14.3718 N.pl3   1  UNL1       -0.3046
     22 C          67.9780   91.8781   13.6484 C.3     1  UNL1        0.1081
     23 C          69.2765   92.4849   14.0907 C.3     1  UNL1        0.0938
     24 N          69.3049   93.4283   15.2564 N.3     1  UNL1       -0.2686
     25 C          70.6035   94.0351   15.6988 C.3     1  UNL1        0.0897
     26 C          68.0348   93.7651   15.9799 C.3     1  UNL1        0.0938
     27 C          66.7362   93.1584   15.5376 C.3     1  UNL1        0.1081
     28 O          62.3918   89.5338   15.4599 O.3     1  UNL1       -0.4701
     29 C          62.9237   89.2128   16.8252 C.3     1  UNL1        0.2525
     30 O          63.2576   85.4486   10.3377 O.3     1  UNL1       -0.4350
     31 C          62.3722   83.5407   13.7032 C.ar    1  UNL1        0.0496
     32 C          62.6249   84.6526   12.7286 C.ar    1  UNL1        0.0519
     33 C          63.0048   84.3366   11.3123 C.ar    1  UNL1        0.1485
     34 C          63.1319   82.9088   10.8706 C.ar    1  UNL1        0.0373
     35 C          62.8792   81.7969   11.8452 C.ar    1  UNL1        0.0001
     36 C          62.4993   82.1129   13.2615 C.ar    1  UNL1       -0.0082
     37 C          62.2465   81.0009   14.2361 C.3     1  UNL1        0.0323
     38 C          62.5997   85.0400   15.8127 C.2     1  UNL1        0.2496
     39 O          63.5870   85.9075   15.0897 O.2     1  UNL1       -0.2698
     40 N          61.9923   83.8566   15.1195 N.am    1  UNL1       -0.2805
     41 H          61.3443   83.2873   15.5940 H       1  UNL1        0.1552
     42 C          62.9129   86.4665   17.9615 C.2     1  UNL1        0.0048
     43 C          62.2198   85.3560   17.2290 C.2     1  UNL1        0.0580
@<TRIPOS>BOND
     1    42    43    2
     2    43    38    1
     3    38    39    2
     4    38    40   am
     5    40    31    1
     6    31    32   ar
     7    32    33   ar
     8    33    30    1
     9    30     1    1
    10     1     2   ar
    11     2     3   ar
    12     3    13    1
    13    13    15    1
    14    15    16   ar
    15    16    17   ar
    16    17    18   ar
    17    18    21    1
    18    21    22    1
    19    22    23    1
    20    23    24    1
    21    24    25    1
    22    24    26    1
    23    26    27    1
    24    18    19   ar
    25    19    20   ar
    26    20    28    1
    27    28    29    1
    28     3     4   ar
    29     4     5   ar
    30     5     6   ar
    31     6     7    1
    32     7     8    1
    33     8     9    1
    34     9    10    1
    35    10    11    1
    36    11    12    1
    37    33    34   ar
    38    34    35   ar
    39    35    36   ar
    40    36    37    1
    41    36    31   ar
    42     6     1   ar
    43    12     7    1
    44    20    15   ar
    45    27    21    1
    46    40    41    1
    47    13    14    1
@<TRIPOS>MOLECULE
*****
 43 47 0 0 0
SMALL
GASTEIGER

@<TRIPOS>ATOM
      1 C          62.2600   86.4603   10.3000 C.ar    1  UNL1        0.2443
      2 N          62.2460   87.3853   11.4809 N.ar    1  UNL1       -0.1953
      3 C          61.3727   88.6048   11.4680 C.ar    1  UNL1        0.1354
      4 C          60.5133   88.8993   10.2743 C.ar    1  UNL1        0.0359
      5 C          60.5273   87.9744    9.0936 C.ar    1  UNL1        0.0221
      6 C          61.4007   86.7549    9.1064 C.ar    1  UNL1        0.1024
      7 N          61.4146   85.8300    7.9255 N.pl3   1  UNL1       -0.2991
      8 C          60.1357   85.5047    7.2125 C.3     1  UNL1        0.1232
      9 C          60.1497   84.5798    6.0317 C.3     1  UNL1        0.1636
     10 O          61.4426   83.9802    5.5639 O.3     1  UNL1       -0.3501
     11 C          62.7216   84.3056    6.2769 C.3     1  UNL1        0.1636
     12 C          62.7076   85.2304    7.4577 C.3     1  UNL1        0.1232
     13 N          61.3587   89.5297   12.6488 N.pl3   1  UNL1       -0.2955
     14 H          60.5112   89.7279   13.1089 H       1  UNL1        0.1537
     15 C          62.6360   90.1526   13.1287 C.ar    1  UNL1        0.0839
     16 C          63.2190   89.7457   14.4495 C.ar    1  UNL1        0.0190
     17 C          64.4964   90.3688   14.9294 C.ar    1  UNL1        0.0160
     18 C          65.1908   91.3986   14.0884 C.ar    1  UNL1        0.0510
     19 C          64.6078   91.8055   12.7676 C.ar    1  UNL1        0.0527
     20 C          63.3305   91.1825   12.2877 C.ar    1  UNL1        0.1532
     21 N          66.4682   92.0216   14.5682 N.pl3   1  UNL1       -0.3046
     22 C          66.4988   92.7584   15.8744 C.3     1  UNL1        0.1081
     23 C          67.7762   93.3814   16.3543 C.3     1  UNL1        0.0938
     24 N          69.0228   93.2676   15.5279 N.3     1  UNL1       -0.2686
     25 C          70.3002   93.8906   16.0078 C.3     1  UNL1        0.0897
     26 C          68.9921   92.5307   14.2218 C.3     1  UNL1        0.0938
     27 C          67.7148   91.9078   13.7419 C.3     1  UNL1        0.1081
     28 O          62.7475   91.5894   10.9669 O.3     1  UNL1       -0.4701
     29 C          63.4388   91.2064    9.6920 C.3     1  UNL1        0.2525
     30 O          63.1333   85.2409   10.3128 O.3     1  UNL1       -0.4350
     31 C          62.5482   83.5385   13.8497 C.ar    1  UNL1        0.0496
     32 C          62.7433   84.5895   12.7975 C.ar    1  UNL1        0.0519
     33 C          62.9382   84.1897   11.3650 C.ar    1  UNL1        0.1485
     34 C          62.9379   82.7387   10.9847 C.ar    1  UNL1        0.0373
     35 C          62.7428   81.6877   12.0368 C.ar    1  UNL1        0.0001
     36 C          62.5480   82.0875   13.4694 C.ar    1  UNL1       -0.0082
     37 C          62.3529   81.0363   14.5216 C.3     1  UNL1        0.0323
     38 C          62.9722   85.2033   15.7987 C.2     1  UNL1        0.2496
     39 O          63.7860   86.0685   14.8825 O.2     1  UNL1       -0.2698
     40 N          62.3533   83.9383   15.2822 N.am    1  UNL1       -0.2805
     41 H          61.8192   83.3705   15.8835 H       1  UNL1        0.1552
     42 C          62.6637   87.0537   17.5962 C.2     1  UNL1        0.0048
     43 C          62.7774   85.6032   17.2312 C.2     1  UNL1        0.0580
@<TRIPOS>BOND
     1    42    43    2
     2    43    38    1
     3    38    39    2
     4    38    40   am
     5    40    31    1
     6    31    32   ar
     7    32    33   ar
     8    33    30    1
     9    30     1    1
    10     1     2   ar
    11     2     3   ar
    12     3    13    1
    13    13    15    1
    14    15    16   ar
    15    16    17   ar
    16    17    18   ar
    17    18    21    1
    18    21    22    1
    19    22    23    1
    20    23    24    1
    21    24    25    1
    22    24    26    1
    23    26    27    1
    24    18    19   ar
    25    19    20   ar
    26    20    28    1
    27    28    29    1
    28     3     4   ar
    29     4     5   ar
    30     5     6   ar
    31     6     7    1
    32     7     8    1
    33     8     9    1
    34     9    10    1
    35    10    11    1
    36    11    12    1
    37    33    34   ar
    38    34    35   ar
    39    35    36   ar
    40    36    37    1
    41    36    31   ar
    42     6     1   ar
    43    12     7    1
    44    20    15   ar
    45    27    21    1
    46    40    41    1
    47    13    14    1
@<TRIPOS>MOLECULE
*****
 43 47 0 0 0
SMALL
GASTEIGER

@<TRIPOS>ATOM
      1 C          63.2692   83.7855   12.7274 C.ar    1  UNL1        0.2443
      2 N          63.3213   84.9833   13.6289 N.ar    1  UNL1       -0.1953
      3 C          63.0056   84.8379   15.0881 C.ar    1  UNL1        0.1354
      4 C          62.6379   83.4948   15.6458 C.ar    1  UNL1        0.0359
      5 C          62.5859   82.2971   14.7442 C.ar    1  UNL1        0.0221
      6 C          62.9016   82.4424   13.2850 C.ar    1  UNL1        0.1024
      7 N          62.8495   81.2447   12.3835 N.pl3   1  UNL1       -0.2991
      8 C          62.4641   79.9051   12.9376 C.3     1  UNL1        0.1232
      9 C          62.4121   78.7074   12.0360 C.3     1  UNL1        0.1636
     10 O          62.7455   78.8493   10.5804 O.3     1  UNL1       -0.3501
     11 C          63.1309   80.1888   10.0264 C.3     1  UNL1        0.1636
     12 C          63.1829   81.3865   10.9279 C.3     1  UNL1        0.1232
     13 N          63.0577   86.0356   15.9896 N.pl3   1  UNL1       -0.2955
     14 H          62.7719   85.9578   16.9285 H       1  UNL1        0.1537
     15 C          63.5451   87.3518   15.4606 C.ar    1  UNL1        0.0839
     16 C          64.0382   87.4561   14.0479 C.ar    1  UNL1        0.0190
     17 C          64.5257   88.7725   13.5189 C.ar    1  UNL1        0.0160
     18 C          64.5200   89.9844   14.4027 C.ar    1  UNL1        0.0510
     19 C          64.0269   89.8801   15.8155 C.ar    1  UNL1        0.0527
     20 C          63.5394   88.5639   16.3445 C.ar    1  UNL1        0.1532
     21 N          65.0075   91.3007   13.8737 N.pl3   1  UNL1       -0.3046
     22 C          64.6984   91.7025   12.4620 C.3     1  UNL1        0.1081
     23 C          65.1858   93.0188   11.9330 C.3     1  UNL1        0.0938
     24 N          65.9823   93.9332   12.8158 N.3     1  UNL1       -0.2686
     25 C          66.4697   95.2496   12.2868 C.3     1  UNL1        0.0897
     26 C          66.2914   93.5314   14.2275 C.3     1  UNL1        0.0938
     27 C          65.8039   92.2152   14.7565 C.3     1  UNL1        0.1081
     28 O          63.0463   88.4595   17.7572 O.3     1  UNL1       -0.4701
     29 C          62.7238   87.1163   18.3418 C.3     1  UNL1        0.2525
     30 O          63.5849   83.9308   11.2682 O.3     1  UNL1       -0.4350
     31 C          60.8765   86.6138   10.1652 C.ar    1  UNL1        0.0496
     32 C          61.7169   85.7206   11.0289 C.ar    1  UNL1        0.0519
     33 C          62.7445   84.8240   10.4044 C.ar    1  UNL1        0.1485
     34 C          62.9319   84.8207    8.9162 C.ar    1  UNL1        0.0373
     35 C          62.0916   85.7138    8.0525 C.ar    1  UNL1        0.0001
     36 C          61.0639   86.6104    8.6770 C.ar    1  UNL1       -0.0082
     37 C          60.2235   87.5036    7.8132 C.3     1  UNL1        0.0323
     38 C          60.2806   88.7153   11.5718 C.2     1  UNL1        0.2496
     39 O          61.7401   89.0238   11.7293 O.2     1  UNL1       -0.2698
     40 N          59.8489   87.5104   10.7897 N.am    1  UNL1       -0.2805
     41 H          58.8910   87.3080   10.6864 H       1  UNL1        0.1552
     42 C          58.9840   90.9665   11.6106 C.2     1  UNL1        0.0048
     43 C          59.2529   89.6119   12.1963 C.2     1  UNL1        0.0580
@<TRIPOS>BOND
     1    42    43    2
     2    43    38    1
     3    38    39    2
     4    38    40   am
     5    40    31    1
     6    31    32   ar
     7    32    33   ar
     8    33    30    1
     9    30     1    1
    10     1     2   ar
    11     2     3   ar
    12     3    13    1
    13    13    15    1
    14    15    16   ar
    15    16    17   ar
    16    17    18   ar
    17    18    21    1
    18    21    22    1
    19    22    23    1
    20    23    24    1
    21    24    25    1
    22    24    26    1
    23    26    27    1
    24    18    19   ar
    25    19    20   ar
    26    20    28    1
    27    28    29    1
    28     3     4   ar
    29     4     5   ar
    30     5     6   ar
    31     6     7    1
    32     7     8    1
    33     8     9    1
    34     9    10    1
    35    10    11    1
    36    11    12    1
    37    33    34   ar
    38    34    35   ar
    39    35    36   ar
    40    36    37    1
    41    36    31   ar
    42     6     1   ar
    43    12     7    1
    44    20    15   ar
    45    27    21    1
    46    40    41    1
    47    13    14    1
