@<TRIPOS>MOLECULE
*****
 38 42 0 0 0
SMALL
GASTEIGER

@<TRIPOS>ATOM
      1 C          60.4471   90.5343   11.5191 C.3     1  UNL1        0.0265
      2 C          61.8225   89.9464   11.6318 C.3     1  UNL1        0.1011
      3 N          63.0203   90.8471   11.6952 N.am    1  UNL1       -0.2438
      4 C          63.5513   91.4780   10.4422 C.3     1  UNL1        0.1009
      5 C          64.7491   92.3787   10.5056 C.3     1  UNL1        0.0662
      6 C          65.4158   92.6486   11.8219 C.3     1  UNL1        0.1600
      7 O          64.8847   92.0177   13.0749 O.3     1  UNL1       -0.4374
      8 C          63.6869   91.1169   13.0116 C.2     1  UNL1        0.4051
      9 O          63.1559   90.4861   14.2645 O.2     1  UNL1       -0.2262
     10 C          66.2831   93.4726   10.9169 C.ar    1  UNL1        0.0138
     11 C          66.2403   94.9699   10.9961 C.ar    1  UNL1       -0.0010
     12 C          67.1075   95.7939   10.0911 C.ar    1  UNL1       -0.0002
     13 C          68.0175   95.1205    9.1070 C.ar    1  UNL1       -0.0000
     14 C          68.0603   93.6232    9.0278 C.ar    1  UNL1       -0.0002
     15 C          67.1930   92.7992    9.9328 C.ar    1  UNL1       -0.0010
     16 C          66.3837   93.2046   12.8239 C.3     1  UNL1        0.0714
     17 C          67.0282   92.2959   13.8283 C.3     1  UNL1        0.0922
     18 C          67.8222   91.6481   12.7329 C.3     1  UNL1        0.0294
     19 C          66.2343   92.9437   14.9238 C.3     1  UNL1        0.0294
     20 O          67.6728   91.3872   14.8327 O.3     1  UNL1       -0.3866
     21 H          68.2957   90.7964   14.3813 H       1  UNL1        0.2102
     22 C          62.0001   88.4577   11.6812 C.ar    1  UNL1       -0.0042
     23 C          63.1101   87.8614   12.4950 C.ar    1  UNL1       -0.0026
     24 C          63.2876   86.3728   12.5443 C.ar    1  UNL1        0.0013
     25 C          62.3553   85.4805   11.7798 C.ar    1  UNL1        0.0193
     26 C          61.2453   86.0768   10.9659 C.ar    1  UNL1        0.0013
     27 C          61.0677   87.5654   10.9166 C.ar    1  UNL1       -0.0026
     28 C          62.5329   83.9918   11.8291 C.ar    1  UNL1        0.1011
     29 C          63.2306   83.2822   10.7068 C.ar    1  UNL1        0.0258
     30 C          63.4082   81.7935   10.7562 C.ar    1  UNL1        0.0638
     31 C          62.8881   81.0145   11.9278 C.ar    1  UNL1        0.2765
     32 O          63.0657   79.5259   11.9772 O.2     1  UNL1       -0.2655
     33 N          62.1904   81.7243   13.0501 N.ar    1  UNL1       -0.2167
     34 N          62.0128   83.2129   13.0007 N.ar    1  UNL1       -0.1668
     35 C          61.6702   80.9453   14.2217 C.3     1  UNL1        0.1307
     36 C          60.2593   80.4364   14.2172 C.3     1  UNL1        0.0245
     37 C          58.7834   80.7000   14.1704 C.3     1  UNL1        0.0021
     38 C          59.2913   79.2912   14.2560 C.3     1  UNL1        0.0021
@<TRIPOS>BOND
     1     2     1    1
     2     2    22    1
     3    22    23   ar
     4    23    24   ar
     5    24    25   ar
     6    25    28    1
     7    28    29   ar
     8    29    30   ar
     9    30    31   ar
    10    31    32    2
    11    31    33   ar
    12    33    35    1
    13    35    36    1
    14    36    37    1
    15    37    38    1
    16    33    34   ar
    17    25    26   ar
    18    26    27   ar
    19     2     3    1
    20     3     4    1
    21     4     5    1
    22     5     6    1
    23     6    16    1
    24    16    17    1
    25    17    18    1
    26    17    19    1
    27    17    20    1
    28     6    10    1
    29    10    11   ar
    30    11    12   ar
    31    12    13   ar
    32    13    14   ar
    33    14    15   ar
    34     6     7    1
    35     7     8    1
    36     8     9    2
    37    27    22   ar
    38     8     3   am
    39    34    28   ar
    40    15    10   ar
    41    38    36    1
    42    20    21    1
@<TRIPOS>MOLECULE
*****
 38 42 0 0 0
SMALL
GASTEIGER

@<TRIPOS>ATOM
      1 C          60.9591   90.3278   11.1722 C.3     1  UNL1        0.0265
      2 C          62.2338   89.6613   11.5972 C.3     1  UNL1        0.1011
      3 N          63.4256   90.4916   11.9718 N.am    1  UNL1       -0.2438
      4 C          64.0752   90.3096   13.3115 C.3     1  UNL1        0.1009
      5 C          65.2669   91.1398   13.6862 C.3     1  UNL1        0.0662
      6 C          65.8091   92.1521   12.7212 C.3     1  UNL1        0.1600
      7 O          65.1594   92.3342   11.3814 O.3     1  UNL1       -0.4374
      8 C          63.9677   91.5039   11.0067 C.2     1  UNL1        0.4051
      9 O          63.3181   91.6859    9.6670 O.2     1  UNL1       -0.2262
     10 C          66.7619   92.3449   13.8635 C.ar    1  UNL1        0.0138
     11 C          68.2308   92.1177   13.6615 C.ar    1  UNL1       -0.0010
     12 C          69.1836   92.3105   14.8039 C.ar    1  UNL1       -0.0002
     13 C          68.6675   92.7305   16.1482 C.ar    1  UNL1       -0.0000
     14 C          67.1986   92.9578   16.3502 C.ar    1  UNL1       -0.0002
     15 C          66.2458   92.7650   15.2079 C.ar    1  UNL1       -0.0010
     16 C          66.6821   93.2314   12.1528 C.3     1  UNL1        0.0714
     17 C          66.5657   93.6055   10.7050 C.3     1  UNL1        0.0922
     18 C          67.3729   92.3987   10.3282 C.3     1  UNL1        0.0294
     19 C          65.7585   94.8123   11.0817 C.3     1  UNL1        0.0294
     20 O          66.4493   93.9796    9.2570 O.3     1  UNL1       -0.3866
     21 H          66.9164   93.3244    8.7153 H       1  UNL1        0.2102
     22 C          62.3169   88.1644   11.6476 C.ar    1  UNL1       -0.0042
     23 C          61.5258   87.3363   10.6788 C.ar    1  UNL1       -0.0026
     24 C          61.6089   85.8395   10.7292 C.ar    1  UNL1        0.0013
     25 C          62.4830   85.1707   11.7484 C.ar    1  UNL1        0.0193
     26 C          63.2741   85.9988   12.7171 C.ar    1  UNL1        0.0013
     27 C          63.1910   87.4956   12.6667 C.ar    1  UNL1       -0.0026
     28 C          62.5661   83.6738   11.7987 C.ar    1  UNL1        0.1011
     29 C          63.1954   82.9190   10.6655 C.ar    1  UNL1        0.0258
     30 C          63.2785   81.4221   10.7159 C.ar    1  UNL1        0.0638
     31 C          62.7322   80.6801   11.8995 C.ar    1  UNL1        0.2765
     32 O          62.8152   79.1833   11.9499 O.2     1  UNL1       -0.2655
     33 N          62.1028   81.4350   13.0328 N.ar    1  UNL1       -0.2167
     34 N          62.0198   82.9318   12.9824 N.ar    1  UNL1       -0.1668
     35 C          61.5565   80.6929   14.2164 C.3     1  UNL1        0.1307
     36 C          60.1144   80.2813   14.2432 C.3     1  UNL1        0.0245
     37 C          58.6611   80.6310   14.1185 C.3     1  UNL1        0.0021
     38 C          59.0698   79.2185   14.4142 C.3     1  UNL1        0.0021
@<TRIPOS>BOND
     1     2     1    1
     2     2    22    1
     3    22    23   ar
     4    23    24   ar
     5    24    25   ar
     6    25    28    1
     7    28    29   ar
     8    29    30   ar
     9    30    31   ar
    10    31    32    2
    11    31    33   ar
    12    33    35    1
    13    35    36    1
    14    36    37    1
    15    37    38    1
    16    33    34   ar
    17    25    26   ar
    18    26    27   ar
    19     2     3    1
    20     3     4    1
    21     4     5    1
    22     5     6    1
    23     6    16    1
    24    16    17    1
    25    17    18    1
    26    17    19    1
    27    17    20    1
    28     6    10    1
    29    10    11   ar
    30    11    12   ar
    31    12    13   ar
    32    13    14   ar
    33    14    15   ar
    34     6     7    1
    35     7     8    1
    36     8     9    2
    37    27    22   ar
    38     8     3   am
    39    34    28   ar
    40    15    10   ar
    41    38    36    1
    42    20    21    1
@<TRIPOS>MOLECULE
*****
 38 42 0 0 0
SMALL
GASTEIGER

@<TRIPOS>ATOM
      1 C          60.8731   90.2876   10.9521 C.3     1  UNL1        0.0265
      2 C          62.2343   89.9090   11.4558 C.3     1  UNL1        0.1011
      3 N          63.3171   90.9436   11.5407 N.am    1  UNL1       -0.2438
      4 C          63.7760   91.6525   10.3011 C.3     1  UNL1        0.1009
      5 C          64.8587   92.6871   10.3860 C.3     1  UNL1        0.0662
      6 C          65.4826   93.0129   11.7106 C.3     1  UNL1        0.1600
      7 O          65.0237   92.3040   12.9504 O.3     1  UNL1       -0.4374
      8 C          63.9409   91.2694   12.8655 C.2     1  UNL1        0.4051
      9 O          63.4820   90.5605   14.1051 O.2     1  UNL1       -0.2262
     10 C          66.2508   93.9476   10.8239 C.ar    1  UNL1        0.0138
     11 C          66.1735   95.4286   11.0495 C.ar    1  UNL1       -0.0010
     12 C          66.9418   96.3633   10.1628 C.ar    1  UNL1       -0.0002
     13 C          67.7872   95.8171    9.0507 C.ar    1  UNL1       -0.0000
     14 C          67.8645   94.3362    8.8252 C.ar    1  UNL1       -0.0002
     15 C          67.0963   93.4014    9.7118 C.ar    1  UNL1       -0.0010
     16 C          66.3733   93.6633   12.7273 C.3     1  UNL1        0.0714
     17 C          67.0691   92.8265   13.7595 C.3     1  UNL1        0.0922
     18 C          67.6976   92.0070   12.6716 C.3     1  UNL1        0.0294
     19 C          66.4406   93.6459   14.8474 C.3     1  UNL1        0.0294
     20 O          67.7650   91.9897   14.7917 O.3     1  UNL1       -0.3866
     21 H          68.2981   91.3097   14.3509 H       1  UNL1        0.2102
     22 C          62.5128   88.4958   11.8747 C.ar    1  UNL1       -0.0042
     23 C          61.8130   87.3591   11.1906 C.ar    1  UNL1       -0.0026
     24 C          62.0916   85.9460   11.6094 C.ar    1  UNL1        0.0013
     25 C          63.0699   85.6696   12.7123 C.ar    1  UNL1        0.0193
     26 C          63.7697   86.8063   13.3964 C.ar    1  UNL1        0.0013
     27 C          63.4912   88.2194   12.9776 C.ar    1  UNL1       -0.0026
     28 C          63.3484   84.2564   13.1311 C.ar    1  UNL1        0.1011
     29 C          64.4135   83.9716   14.1483 C.ar    1  UNL1        0.0258
     30 C          64.6920   82.5584   14.5671 C.ar    1  UNL1        0.0638
     31 C          63.9054   81.4300   13.9687 C.ar    1  UNL1        0.2765
     32 O          64.1839   80.0169   14.3875 O.2     1  UNL1       -0.2655
     33 N          62.8404   81.7148   12.9515 N.ar    1  UNL1       -0.2167
     34 N          62.5619   83.1280   12.5328 N.ar    1  UNL1       -0.1668
     35 C          62.0538   80.5864   12.3532 C.3     1  UNL1        0.1307
     36 C          62.5612   79.8855   11.1279 C.3     1  UNL1        0.0245
     37 C          62.8350   78.6161   10.3772 C.3     1  UNL1        0.0021
     38 C          63.1661   79.9409    9.7564 C.3     1  UNL1        0.0021
@<TRIPOS>BOND
     1     2     1    1
     2     2    22    1
     3    22    23   ar
     4    23    24   ar
     5    24    25   ar
     6    25    28    1
     7    28    29   ar
     8    29    30   ar
     9    30    31   ar
    10    31    32    2
    11    31    33   ar
    12    33    35    1
    13    35    36    1
    14    36    37    1
    15    37    38    1
    16    33    34   ar
    17    25    26   ar
    18    26    27   ar
    19     2     3    1
    20     3     4    1
    21     4     5    1
    22     5     6    1
    23     6    16    1
    24    16    17    1
    25    17    18    1
    26    17    19    1
    27    17    20    1
    28     6    10    1
    29    10    11   ar
    30    11    12   ar
    31    12    13   ar
    32    13    14   ar
    33    14    15   ar
    34     6     7    1
    35     7     8    1
    36     8     9    2
    37    27    22   ar
    38     8     3   am
    39    34    28   ar
    40    15    10   ar
    41    38    36    1
    42    20    21    1
