@<TRIPOS>MOLECULE
*****
 30 33 0 0 0
SMALL
GASTEIGER

@<TRIPOS>ATOM
      1 C          62.5547   89.7469   11.3801 C.2     1  UNL1        0.0294
      2 C          61.6082   90.4934   10.4875 C.2     1  UNL1        0.2320
      3 N          60.8098   89.7538    9.4553 N.2     1  UNL1       -0.0311
      4 C          60.9580   88.2677    9.3156 C.2     1  UNL1        0.3720
      5 N          60.3084   87.2762    8.3962 N.2     1  UNL1       -0.0308
      6 C          60.8536   85.9170    8.7206 C.2     1  UNL1        0.2359
      7 C          61.8401   86.0684    9.8404 C.2     1  UNL1        0.0536
      8 C          61.9046   87.5212   10.2081 C.2     1  UNL1        0.0744
      9 C          62.7029   88.2608   11.2404 C.3     1  UNL1        0.0645
     10 C          62.6243   84.9613   10.4802 C.ar    1  UNL1        0.0421
     11 C          62.4689   84.6820   11.9458 C.ar    1  UNL1        0.1034
     12 N          63.2531   83.5749   12.5856 N.ar    1  UNL1       -0.2125
     13 C          64.1929   82.7472   11.7599 C.ar    1  UNL1        0.2137
     14 N          64.9771   81.6402   12.3998 N.pl3   1  UNL1       -0.3274
     15 N          64.3483   83.0266   10.2944 N.ar    1  UNL1       -0.2125
     16 C          63.5640   84.1336    9.6546 C.ar    1  UNL1        0.1034
     17 H          64.8751   81.4568   13.3616 H       1  UNL1        0.1452
     18 H          65.5939   81.0969   11.8578 H       1  UNL1        0.1452
     19 C          63.9440   90.9373   14.9019 C.ar    1  UNL1        0.1754
     20 C          63.1456   90.1977   13.8696 C.ar    1  UNL1        0.0401
     21 C          63.3532   90.4865   12.4124 C.ar    1  UNL1        0.0063
     22 C          64.3591   91.5148   11.9874 C.ar    1  UNL1        0.0401
     23 C          65.1575   92.2544   13.0196 C.ar    1  UNL1        0.1754
     24 C          64.9500   91.9657   14.4769 C.ar    1  UNL1        0.2061
     25 C          63.0931   89.3622   16.7846 C.3     1  UNL1        0.2526
     26 O          63.7365   90.6486   16.3591 O.3     1  UNL1       -0.4683
     27 O          66.1635   93.2827   12.5946 O.3     1  UNL1       -0.4683
     28 C          66.0100   93.9821   11.2764 C.3     1  UNL1        0.2526
     29 O          65.7484   92.7053   15.5091 O.3     1  UNL1       -0.4654
     30 C          67.1840   92.3425   15.7484 C.3     1  UNL1        0.2528
@<TRIPOS>BOND
     1    25    26    1
     2    26    19    1
     3    19    20   ar
     4    20    21   ar
     5    21     1    1
     6     1     2    2
     7     2     3    1
     8     3     4    2
     9     4     5    1
    10     5     6    2
    11     6     7    1
    12     7    10    1
    13    10    11   ar
    14    11    12   ar
    15    12    13   ar
    16    13    14    1
    17    13    15   ar
    18    15    16   ar
    19     7     8    2
    20     8     9    1
    21    21    22   ar
    22    22    23   ar
    23    23    27    1
    24    27    28    1
    25    23    24   ar
    26    24    29    1
    27    29    30    1
    28    24    19   ar
    29     9     1    1
    30     8     4    1
    31    16    10   ar
    32    14    17    1
    33    14    18    1
@<TRIPOS>MOLECULE
*****
 30 33 0 0 0
SMALL
GASTEIGER

@<TRIPOS>ATOM
      1 C          62.5652   89.7463   11.3893 C.2     1  UNL1        0.0294
      2 C          61.6300   90.4965   10.4879 C.2     1  UNL1        0.2320
      3 N          60.8405   89.7604    9.4464 N.2     1  UNL1       -0.0311
      4 C          60.9862   88.2740    9.3063 C.2     1  UNL1        0.3720
      5 N          60.3437   87.2856    8.3788 N.2     1  UNL1       -0.0308
      6 C          60.8818   85.9244    8.7071 C.2     1  UNL1        0.2359
      7 C          61.8568   86.0717    9.8374 C.2     1  UNL1        0.0536
      8 C          61.9214   87.5238   10.2077 C.2     1  UNL1        0.0744
      9 C          62.7109   88.2599   11.2492 C.3     1  UNL1        0.0645
     10 C          62.6314   84.9617   10.4839 C.ar    1  UNL1        0.0421
     11 C          62.4582   84.6794   11.9469 C.ar    1  UNL1        0.1034
     12 N          63.2327   83.5694   12.5934 N.ar    1  UNL1       -0.2125
     13 C          64.1805   82.7417   11.7770 C.ar    1  UNL1        0.2137
     14 N          64.9551   81.6317   12.4235 N.pl3   1  UNL1       -0.3274
     15 N          64.3537   83.0240   10.3140 N.ar    1  UNL1       -0.2125
     16 C          63.5792   84.1340    9.6675 C.ar    1  UNL1        0.1034
     17 H          64.8414   81.4465   13.3837 H       1  UNL1        0.1452
     18 H          65.5771   81.0885   11.8876 H       1  UNL1        0.1452
     19 C          65.1418   92.2601   13.0603 C.ar    1  UNL1        0.1754
     20 C          64.3523   91.5240   12.0187 C.ar    1  UNL1        0.0401
     21 C          63.3547   90.4824   12.4309 C.ar    1  UNL1        0.0063
     22 C          63.1467   90.1768   13.8846 C.ar    1  UNL1        0.0401
     23 C          63.9362   90.9128   14.9262 C.ar    1  UNL1        0.1754
     24 C          64.9338   91.9545   14.5141 C.ar    1  UNL1        0.2061
     25 C          66.0543   93.9242   11.2861 C.3     1  UNL1        0.2526
     26 O          66.1393   93.3017   12.6482 O.3     1  UNL1       -0.4683
     27 O          63.7281   90.6073   16.3799 O.3     1  UNL1       -0.4683
     28 C          63.0801   89.3181   16.7901 C.3     1  UNL1        0.2526
     29 O          65.7232   92.6906   15.5556 O.3     1  UNL1       -0.4654
     30 C          67.1606   92.3358   15.7969 C.3     1  UNL1        0.2528
@<TRIPOS>BOND
     1    25    26    1
     2    26    19    1
     3    19    20   ar
     4    20    21   ar
     5    21     1    1
     6     1     2    2
     7     2     3    1
     8     3     4    2
     9     4     5    1
    10     5     6    2
    11     6     7    1
    12     7    10    1
    13    10    11   ar
    14    11    12   ar
    15    12    13   ar
    16    13    14    1
    17    13    15   ar
    18    15    16   ar
    19     7     8    2
    20     8     9    1
    21    21    22   ar
    22    22    23   ar
    23    23    27    1
    24    27    28    1
    25    23    24   ar
    26    24    29    1
    27    29    30    1
    28    24    19   ar
    29     9     1    1
    30     8     4    1
    31    16    10   ar
    32    14    17    1
    33    14    18    1
@<TRIPOS>MOLECULE
*****
 30 33 0 0 0
SMALL
GASTEIGER

@<TRIPOS>ATOM
      1 C          64.2413   89.4344   15.0232 C.2     1  UNL1        0.0294
      2 C          63.7770   89.7870   16.4053 C.2     1  UNL1        0.2320
      3 N          63.1593   88.7365   17.2797 N.2     1  UNL1       -0.0311
      4 C          63.0059   87.3333   16.7722 C.2     1  UNL1        0.3720
      5 N          62.4390   86.0949   17.4009 N.2     1  UNL1       -0.0308
      6 C          62.5529   84.9770   16.4073 C.2     1  UNL1        0.2359
      7 C          63.1902   85.5244   15.1646 C.2     1  UNL1        0.0536
      8 C          63.4702   86.9807   15.3902 C.2     1  UNL1        0.0744
      9 C          64.0879   88.0312   14.5157 C.3     1  UNL1        0.0645
     10 C          63.4942   84.7513   13.9157 C.ar    1  UNL1        0.0421
     11 C          62.9009   85.1787   12.6060 C.ar    1  UNL1        0.1034
     12 N          63.2048   84.4056   11.3570 N.ar    1  UNL1       -0.2125
     13 C          64.1022   83.2051   11.4177 C.ar    1  UNL1        0.2137
     14 N          64.4062   82.4320   10.1687 N.pl3   1  UNL1       -0.3274
     15 N          64.6955   82.7778   12.7274 N.ar    1  UNL1       -0.2125
     16 C          64.3915   83.5509   13.9763 C.ar    1  UNL1        0.1034
     17 H          64.0167   82.7125    9.3091 H       1  UNL1        0.1452
     18 H          64.9951   81.6441   10.2086 H       1  UNL1        0.1452
     19 C          66.7022   92.2684   13.7336 C.ar    1  UNL1        0.1754
     20 C          66.0845   91.2178   14.6081 C.ar    1  UNL1        0.0401
     21 C          64.8590   90.4850   14.1487 C.ar    1  UNL1        0.0063
     22 C          64.2512   90.8026   12.8146 C.ar    1  UNL1        0.0401
     23 C          64.8689   91.8531   11.9401 C.ar    1  UNL1        0.1754
     24 C          66.0944   92.5860   12.3995 C.ar    1  UNL1        0.2061
     25 C          68.0415   93.4517   15.6193 C.3     1  UNL1        0.2526
     26 O          67.9277   93.0012   14.1931 O.3     1  UNL1       -0.4683
     27 O          64.2611   92.1708   10.6060 O.3     1  UNL1       -0.4683
     28 C          63.1367   91.3317   10.0752 C.3     1  UNL1        0.2526
     29 O          66.7121   93.6365   11.5250 O.3     1  UNL1       -0.4654
     30 C          66.1781   95.0381   11.5451 C.3     1  UNL1        0.2528
@<TRIPOS>BOND
     1    25    26    1
     2    26    19    1
     3    19    20   ar
     4    20    21   ar
     5    21     1    1
     6     1     2    2
     7     2     3    1
     8     3     4    2
     9     4     5    1
    10     5     6    2
    11     6     7    1
    12     7    10    1
    13    10    11   ar
    14    11    12   ar
    15    12    13   ar
    16    13    14    1
    17    13    15   ar
    18    15    16   ar
    19     7     8    2
    20     8     9    1
    21    21    22   ar
    22    22    23   ar
    23    23    27    1
    24    27    28    1
    25    23    24   ar
    26    24    29    1
    27    29    30    1
    28    24    19   ar
    29     9     1    1
    30     8     4    1
    31    16    10   ar
    32    14    17    1
    33    14    18    1
@<TRIPOS>MOLECULE
*****
 30 33 0 0 0
SMALL
GASTEIGER

@<TRIPOS>ATOM
      1 C          64.2508   89.4648   15.0339 C.2     1  UNL1        0.0294
      2 C          63.7873   89.8244   16.4143 C.2     1  UNL1        0.2320
      3 N          63.1689   88.7786   17.2940 N.2     1  UNL1       -0.0311
      4 C          63.0141   87.3732   16.7932 C.2     1  UNL1        0.3720
      5 N          62.4462   86.1384   17.4279 N.2     1  UNL1       -0.0308
      6 C          62.5588   85.0156   16.4397 C.2     1  UNL1        0.2359
      7 C          63.1962   85.5565   15.1942 C.2     1  UNL1        0.0536
      8 C          63.4776   87.0136   15.4127 C.2     1  UNL1        0.0744
      9 C          64.0959   88.0594   14.5331 C.3     1  UNL1        0.0645
     10 C          63.4991   84.7772   13.9489 C.ar    1  UNL1        0.0421
     11 C          64.4037   83.5823   14.0132 C.ar    1  UNL1        0.1034
     12 N          64.7066   82.8030   12.7679 N.ar    1  UNL1       -0.2125
     13 C          64.1049   83.2184   11.4582 C.ar    1  UNL1        0.2137
     14 N          64.4078   82.4391   10.2129 N.pl3   1  UNL1       -0.3274
     15 N          63.2003   84.4132   11.3938 N.ar    1  UNL1       -0.2125
     16 C          62.8974   85.1926   12.6392 C.ar    1  UNL1        0.1034
     17 H          65.0015   81.6549   10.2551 H       1  UNL1        0.1452
     18 H          64.0129   82.7118    9.3532 H       1  UNL1        0.1452
     19 C          64.8815   91.8662   11.9377 C.ar    1  UNL1        0.1754
     20 C          64.2631   90.8204   12.8175 C.ar    1  UNL1        0.0401
     21 C          64.8692   90.5106   14.1541 C.ar    1  UNL1        0.0063
     22 C          66.0938   91.2466   14.6110 C.ar    1  UNL1        0.0401
     23 C          66.7122   92.2923   13.7313 C.ar    1  UNL1        0.1754
     24 C          66.1061   92.6022   12.3946 C.ar    1  UNL1        0.2061
     25 C          63.1416   91.3432   10.0806 C.3     1  UNL1        0.2526
     26 O          64.2754   92.1760   10.6011 O.3     1  UNL1       -0.4683
     27 O          67.9368   93.0283   14.1883 O.3     1  UNL1       -0.4683
     28 C          68.0915   93.4027   15.6326 C.3     1  UNL1        0.2526
     29 O          66.7245   93.6479   11.5150 O.3     1  UNL1       -0.4654
     30 C          66.1818   95.0463   11.5170 C.3     1  UNL1        0.2528
@<TRIPOS>BOND
     1    25    26    1
     2    26    19    1
     3    19    20   ar
     4    20    21   ar
     5    21     1    1
     6     1     2    2
     7     2     3    1
     8     3     4    2
     9     4     5    1
    10     5     6    2
    11     6     7    1
    12     7    10    1
    13    10    11   ar
    14    11    12   ar
    15    12    13   ar
    16    13    14    1
    17    13    15   ar
    18    15    16   ar
    19     7     8    2
    20     8     9    1
    21    21    22   ar
    22    22    23   ar
    23    23    27    1
    24    27    28    1
    25    23    24   ar
    26    24    29    1
    27    29    30    1
    28    24    19   ar
    29     9     1    1
    30     8     4    1
    31    16    10   ar
    32    14    17    1
    33    14    18    1
@<TRIPOS>MOLECULE
*****
 30 33 0 0 0
SMALL
GASTEIGER

@<TRIPOS>ATOM
      1 C          63.4487   89.9234   12.8732 C.2     1  UNL1        0.0294
      2 C          63.3989   89.6386   14.3451 C.2     1  UNL1        0.2320
      3 N          64.2024   90.4729   15.2980 N.2     1  UNL1       -0.0311
      4 C          65.0558   91.5921   14.7791 C.2     1  UNL1        0.3720
      5 N          65.9502   92.5767   15.4724 N.2     1  UNL1       -0.0308
      6 C          66.5528   93.4700   14.4290 C.2     1  UNL1        0.2359
      7 C          66.0309   93.0375   13.0909 C.2     1  UNL1        0.0536
      8 C          65.1057   91.8768   13.3073 C.2     1  UNL1        0.0744
      9 C          64.3021   91.0425   12.3544 C.3     1  UNL1        0.0645
     10 C          66.3739   93.6568   11.7685 C.ar    1  UNL1        0.0421
     11 C          66.9608   92.8140   10.6752 C.ar    1  UNL1        0.1034
     12 N          67.3038   93.4333    9.3528 N.ar    1  UNL1       -0.2125
     13 C          67.0600   94.8955    9.1236 C.ar    1  UNL1        0.2137
     14 N          67.4030   95.5148    7.8012 N.pl3   1  UNL1       -0.3274
     15 N          66.4731   95.7383   10.2169 N.ar    1  UNL1       -0.2125
     16 C          66.1301   95.1190   11.5392 C.ar    1  UNL1        0.1034
     17 H          67.7882   94.9617    7.0837 H       1  UNL1        0.1452
     18 H          67.2430   96.4745    7.6508 H       1  UNL1        0.1452
     19 C          60.8440   88.9070   10.0567 C.ar    1  UNL1        0.1754
     20 C          61.6475   89.7414   11.0097 C.ar    1  UNL1        0.0401
     21 C          62.6452   89.0890   11.9202 C.ar    1  UNL1        0.0063
     22 C          62.8394   87.6022   11.8777 C.ar    1  UNL1        0.0401
     23 C          62.0359   86.7678   10.9247 C.ar    1  UNL1        0.1754
     24 C          61.0381   87.4203   10.0142 C.ar    1  UNL1        0.2061
     25 C          59.8599   89.2550    7.6775 C.3     1  UNL1        0.2526
     26 O          59.8463   89.5594    9.1462 O.3     1  UNL1       -0.4683
     27 O          62.2300   85.2811   10.8822 O.3     1  UNL1       -0.4683
     28 C          62.8553   84.5728   12.0473 C.3     1  UNL1        0.2526
     29 O          60.2347   86.5859    9.0612 O.3     1  UNL1       -0.4654
     30 C          60.9061   85.9224    7.8955 C.3     1  UNL1        0.2528
@<TRIPOS>BOND
     1    25    26    1
     2    26    19    1
     3    19    20   ar
     4    20    21   ar
     5    21     1    1
     6     1     2    2
     7     2     3    1
     8     3     4    2
     9     4     5    1
    10     5     6    2
    11     6     7    1
    12     7    10    1
    13    10    11   ar
    14    11    12   ar
    15    12    13   ar
    16    13    14    1
    17    13    15   ar
    18    15    16   ar
    19     7     8    2
    20     8     9    1
    21    21    22   ar
    22    22    23   ar
    23    23    27    1
    24    27    28    1
    25    23    24   ar
    26    24    29    1
    27    29    30    1
    28    24    19   ar
    29     9     1    1
    30     8     4    1
    31    16    10   ar
    32    14    17    1
    33    14    18    1
@<TRIPOS>MOLECULE
*****
 30 33 0 0 0
SMALL
GASTEIGER

@<TRIPOS>ATOM
      1 C          63.4379   89.9035   12.8609 C.2     1  UNL1        0.0294
      2 C          63.3907   89.6103   14.3312 C.2     1  UNL1        0.2320
      3 N          64.1953   90.4398   15.2875 N.2     1  UNL1       -0.0311
      4 C          65.0469   91.5625   14.7736 C.2     1  UNL1        0.3720
      5 N          65.9418   92.5439   15.4709 N.2     1  UNL1       -0.0308
      6 C          66.5420   93.4436   14.4316 C.2     1  UNL1        0.2359
      7 C          66.0180   93.0183   13.0919 C.2     1  UNL1        0.0536
      8 C          65.0941   91.8558   13.3033 C.2     1  UNL1        0.0744
      9 C          64.2895   91.0262   12.3470 C.3     1  UNL1        0.0645
     10 C          66.3583   93.6455   11.7725 C.ar    1  UNL1        0.0421
     11 C          66.9545   92.8117   10.6773 C.ar    1  UNL1        0.1034
     12 N          67.2948   93.4389    9.3579 N.ar    1  UNL1       -0.2125
     13 C          67.0390   94.8997    9.1336 C.ar    1  UNL1        0.2137
     14 N          67.3793   95.5269    7.8142 N.pl3   1  UNL1       -0.3274
     15 N          66.4428   95.7335   10.2288 N.ar    1  UNL1       -0.2125
     16 C          66.1025   95.1063   11.5482 C.ar    1  UNL1        0.1034
     17 H          67.7706   94.9796    7.0954 H       1  UNL1        0.1452
     18 H          67.2114   96.4857    7.6670 H       1  UNL1        0.1452
     19 C          62.0165   86.7569   10.9041 C.ar    1  UNL1        0.1754
     20 C          62.8211   87.5865   11.8605 C.ar    1  UNL1        0.0401
     21 C          62.6333   89.0740   11.9045 C.ar    1  UNL1        0.0063
     22 C          61.6411   89.7321   10.9922 C.ar    1  UNL1        0.0401
     23 C          60.8365   88.9026   10.0358 C.ar    1  UNL1        0.1754
     24 C          61.0242   87.4150    9.9917 C.ar    1  UNL1        0.2061
     25 C          62.8046   84.5541   12.0339 C.3     1  UNL1        0.2526
     26 O          62.2042   85.2694   10.8600 O.3     1  UNL1       -0.4683
     27 O          59.8443   89.5607    9.1235 O.3     1  UNL1       -0.4683
     28 C          59.8631   89.2611    7.6538 C.3     1  UNL1        0.2526
     29 O          60.2197   86.5856    9.0354 O.3     1  UNL1       -0.4654
     30 C          60.8903   85.9263    7.8668 C.3     1  UNL1        0.2528
@<TRIPOS>BOND
     1    25    26    1
     2    26    19    1
     3    19    20   ar
     4    20    21   ar
     5    21     1    1
     6     1     2    2
     7     2     3    1
     8     3     4    2
     9     4     5    1
    10     5     6    2
    11     6     7    1
    12     7    10    1
    13    10    11   ar
    14    11    12   ar
    15    12    13   ar
    16    13    14    1
    17    13    15   ar
    18    15    16   ar
    19     7     8    2
    20     8     9    1
    21    21    22   ar
    22    22    23   ar
    23    23    27    1
    24    27    28    1
    25    23    24   ar
    26    24    29    1
    27    29    30    1
    28    24    19   ar
    29     9     1    1
    30     8     4    1
    31    16    10   ar
    32    14    17    1
    33    14    18    1
@<TRIPOS>MOLECULE
*****
 30 33 0 0 0
SMALL
GASTEIGER

@<TRIPOS>ATOM
      1 C          62.1356   86.2300   11.0749 C.2     1  UNL1        0.0294
      2 C          61.1066   86.2768    9.9845 C.2     1  UNL1        0.2320
      3 N          60.6938   87.5946    9.3990 N.2     1  UNL1       -0.0311
      4 C          61.3099   88.8656    9.9039 C.2     1  UNL1        0.3720
      5 N          61.1035   90.3017    9.5227 N.2     1  UNL1       -0.0308
      6 C          62.0049   91.1423   10.3775 C.2     1  UNL1        0.2359
      7 C          62.7684   90.2259   11.2870 C.2     1  UNL1        0.0536
      8 C          62.3389   88.8188   10.9943 C.2     1  UNL1        0.0744
      9 C          62.7517   87.5010   11.5798 C.3     1  UNL1        0.0645
     10 C          63.7833   90.6432   12.3096 C.ar    1  UNL1        0.0421
     11 C          63.8983   89.8913   13.6025 C.ar    1  UNL1        0.1034
     12 N          64.9132   90.3086   14.6251 N.ar    1  UNL1       -0.2125
     13 C          65.8131   91.4778   14.3550 C.ar    1  UNL1        0.2137
     14 N          66.8280   91.8951   15.3777 N.pl3   1  UNL1       -0.3274
     15 N          65.6982   92.2297   13.0622 N.ar    1  UNL1       -0.2125
     16 C          64.6833   91.8124   12.0395 C.ar    1  UNL1        0.1034
     17 H          66.9035   91.4016   16.2262 H       1  UNL1        0.1452
     18 H          67.4187   92.6625   15.2004 H       1  UNL1        0.1452
     19 C          63.4126   82.4821   11.3462 C.ar    1  UNL1        0.1754
     20 C          62.9997   83.8000   10.7607 C.ar    1  UNL1        0.0401
     21 C          62.5485   84.9121   11.6605 C.ar    1  UNL1        0.0063
     22 C          62.5101   84.7064   13.1458 C.ar    1  UNL1        0.0401
     23 C          62.9230   83.3886   13.7313 C.ar    1  UNL1        0.1754
     24 C          63.3743   82.2764   12.8316 C.ar    1  UNL1        0.2061
     25 C          62.9351   80.2344   10.1340 C.3     1  UNL1        0.2526
     26 O          63.8639   81.3701   10.4465 O.3     1  UNL1       -0.4683
     27 O          62.8846   83.1829   15.2167 O.3     1  UNL1       -0.4683
     28 C          62.6722   84.3532   16.1307 C.3     1  UNL1        0.2526
     29 O          63.7871   80.9586   13.4171 O.3     1  UNL1       -0.4654
     30 C          62.7487   79.9318   13.7594 C.3     1  UNL1        0.2528
@<TRIPOS>BOND
     1    25    26    1
     2    26    19    1
     3    19    20   ar
     4    20    21   ar
     5    21     1    1
     6     1     2    2
     7     2     3    1
     8     3     4    2
     9     4     5    1
    10     5     6    2
    11     6     7    1
    12     7    10    1
    13    10    11   ar
    14    11    12   ar
    15    12    13   ar
    16    13    14    1
    17    13    15   ar
    18    15    16   ar
    19     7     8    2
    20     8     9    1
    21    21    22   ar
    22    22    23   ar
    23    23    27    1
    24    27    28    1
    25    23    24   ar
    26    24    29    1
    27    29    30    1
    28    24    19   ar
    29     9     1    1
    30     8     4    1
    31    16    10   ar
    32    14    17    1
    33    14    18    1
@<TRIPOS>MOLECULE
*****
 30 33 0 0 0
SMALL
GASTEIGER

@<TRIPOS>ATOM
      1 C          62.1216   86.2252   11.0542 C.2     1  UNL1        0.0294
      2 C          61.0903   86.2727    9.9661 C.2     1  UNL1        0.2320
      3 N          60.6772   87.5908    9.3814 N.2     1  UNL1       -0.0311
      4 C          61.2954   88.8614    9.8849 C.2     1  UNL1        0.3720
      5 N          61.0893   90.2976    9.5040 N.2     1  UNL1       -0.0308
      6 C          61.9932   91.1376   10.3568 C.2     1  UNL1        0.2359
      7 C          62.7580   90.2206   11.2647 C.2     1  UNL1        0.0536
      8 C          62.3267   88.8138   10.9731 C.2     1  UNL1        0.0744
      9 C          62.7398   87.4957   11.5577 C.3     1  UNL1        0.0645
     10 C          63.7754   90.6372   12.2852 C.ar    1  UNL1        0.0421
     11 C          63.8913   89.8864   13.5786 C.ar    1  UNL1        0.1034
     12 N          64.9087   90.3030   14.5991 N.ar    1  UNL1       -0.2125
     13 C          65.8103   91.4703   14.3261 C.ar    1  UNL1        0.2137
     14 N          66.8277   91.8869   15.3465 N.pl3   1  UNL1       -0.3274
     15 N          65.6944   92.2210   13.0327 N.ar    1  UNL1       -0.2125
     16 C          64.6770   91.8044   12.0122 C.ar    1  UNL1        0.1034
     17 H          66.9037   91.3942   16.1955 H       1  UNL1        0.1452
     18 H          67.4195   92.6530   15.1674 H       1  UNL1        0.1452
     19 C          62.9027   83.3797   13.7083 C.ar    1  UNL1        0.1754
     20 C          62.4895   84.6979   13.1236 C.ar    1  UNL1        0.0401
     21 C          62.5348   84.9070   11.6389 C.ar    1  UNL1        0.0063
     22 C          62.9932   83.7980   10.7389 C.ar    1  UNL1        0.0401
     23 C          63.4063   82.4799   11.3236 C.ar    1  UNL1        0.1754
     24 C          63.3611   82.2707   12.8083 C.ar    1  UNL1        0.2061
     25 C          62.6484   84.3398   16.1090 C.3     1  UNL1        0.2526
     26 O          62.8575   83.1706   15.1929 O.3     1  UNL1       -0.4683
     27 O          63.8647   81.3709   10.4236 O.3     1  UNL1       -0.4683
     28 C          62.9413   80.2320   10.1066 C.3     1  UNL1        0.2526
     29 O          63.7742   80.9526   13.3929 O.3     1  UNL1       -0.4654
     30 C          62.7357   79.9273   13.7392 C.3     1  UNL1        0.2528
@<TRIPOS>BOND
     1    25    26    1
     2    26    19    1
     3    19    20   ar
     4    20    21   ar
     5    21     1    1
     6     1     2    2
     7     2     3    1
     8     3     4    2
     9     4     5    1
    10     5     6    2
    11     6     7    1
    12     7    10    1
    13    10    11   ar
    14    11    12   ar
    15    12    13   ar
    16    13    14    1
    17    13    15   ar
    18    15    16   ar
    19     7     8    2
    20     8     9    1
    21    21    22   ar
    22    22    23   ar
    23    23    27    1
    24    27    28    1
    25    23    24   ar
    26    24    29    1
    27    29    30    1
    28    24    19   ar
    29     9     1    1
    30     8     4    1
    31    16    10   ar
    32    14    17    1
    33    14    18    1
@<TRIPOS>MOLECULE
*****
 30 33 0 0 0
SMALL
GASTEIGER

@<TRIPOS>ATOM
      1 C          63.8416   88.5876   14.4787 C.2     1  UNL1        0.0294
      2 C          63.1732   88.8200   15.8013 C.2     1  UNL1        0.2320
      3 N          63.4281   90.0901   16.5574 N.2     1  UNL1       -0.0311
      4 C          64.3512   91.1279   15.9910 C.2     1  UNL1        0.3720
      5 N          64.7915   92.4670   16.5039 N.2     1  UNL1       -0.0308
      6 C          65.7319   93.0621   15.4983 C.2     1  UNL1        0.2359
      7 C          65.8729   92.0909   14.3639 C.2     1  UNL1        0.0536
      8 C          65.0195   90.8955   14.6684 C.2     1  UNL1        0.0744
      9 C          64.7647   89.6253   13.9122 C.3     1  UNL1        0.0645
     10 C          66.7186   92.2816   13.1398 C.ar    1  UNL1        0.0421
     11 C          66.2478   93.1810   12.0355 C.ar    1  UNL1        0.1034
     12 N          67.0936   93.3717   10.8115 N.ar    1  UNL1       -0.2125
     13 C          68.4102   92.6631   10.6917 C.ar    1  UNL1        0.2137
     14 N          69.2560   92.8538    9.4676 N.pl3   1  UNL1       -0.3274
     15 N          68.8810   91.7638   11.7960 N.ar    1  UNL1       -0.2125
     16 C          68.0353   91.5731   13.0200 C.ar    1  UNL1        0.1034
     17 H          68.9469   93.4441    8.7428 H       1  UNL1        0.1452
     18 H          70.1201   92.3887    9.3891 H       1  UNL1        0.1452
     19 C          62.7249   86.0993   11.5956 C.ar    1  UNL1        0.1754
     20 C          62.9797   87.3695   12.3518 C.ar    1  UNL1        0.0401
     21 C          63.5868   87.3174   13.7225 C.ar    1  UNL1        0.0063
     22 C          63.9391   85.9952   14.3370 C.ar    1  UNL1        0.0401
     23 C          63.6843   84.7250   13.5808 C.ar    1  UNL1        0.1754
     24 C          63.0772   84.7771   12.2101 C.ar    1  UNL1        0.2061
     25 C          61.5312   87.4333    9.7127 C.3     1  UNL1        0.2526
     26 O          62.1178   86.1514   10.2250 O.3     1  UNL1       -0.4683
     27 O          64.0366   83.4028   14.1953 O.3     1  UNL1       -0.4683
     28 C          62.9513   82.4901   14.6844 C.3     1  UNL1        0.2526
     29 O          62.8224   83.5069   11.4540 O.3     1  UNL1       -0.4654
     30 C          63.9009   82.9164   10.5949 C.3     1  UNL1        0.2528
@<TRIPOS>BOND
     1    25    26    1
     2    26    19    1
     3    19    20   ar
     4    20    21   ar
     5    21     1    1
     6     1     2    2
     7     2     3    1
     8     3     4    2
     9     4     5    1
    10     5     6    2
    11     6     7    1
    12     7    10    1
    13    10    11   ar
    14    11    12   ar
    15    12    13   ar
    16    13    14    1
    17    13    15   ar
    18    15    16   ar
    19     7     8    2
    20     8     9    1
    21    21    22   ar
    22    22    23   ar
    23    23    27    1
    24    27    28    1
    25    23    24   ar
    26    24    29    1
    27    29    30    1
    28    24    19   ar
    29     9     1    1
    30     8     4    1
    31    16    10   ar
    32    14    17    1
    33    14    18    1
