@<TRIPOS>MOLECULE
*****
 25 28 0 0 0
SMALL
GASTEIGER

@<TRIPOS>ATOM
      1 C          63.8306   89.6652   13.5367 C.ar    1  UNL1        0.1385
      2 C          63.1318   89.3106   12.2577 C.ar    1  UNL1        0.0384
      3 C          62.8796   87.8724   11.9147 C.ar    1  UNL1        0.0203
      4 C          63.3262   86.7887   12.8507 C.ar    1  UNL1        0.0602
      5 C          64.0250   87.1433   14.1297 C.ar    1  UNL1        0.0204
      6 C          64.2772   88.5815   14.4727 C.ar    1  UNL1        0.0384
      7 C          64.3476   85.8680   14.8506 C.ar    1  UNL1        0.0233
      8 C          63.8482   84.7252   14.0171 C.ar    1  UNL1        0.1140
      9 N          63.2169   85.2942   12.7811 N.ar    1  UNL1       -0.3219
     10 C          62.6242   84.3781   11.7519 C.3     1  UNL1        0.1273
     11 C          62.6627   82.8929   11.9587 C.3     1  UNL1        0.1142
     12 N          63.2940   82.3239   13.1947 N.am    1  UNL1       -0.2978
     13 C          63.8868   83.2401   14.2239 C.2     1  UNL1        0.2618
     14 O          64.5181   82.6711   15.4600 O.2     1  UNL1       -0.2686
     15 H          63.3193   81.3492   13.3305 H       1  UNL1        0.1499
     16 O          64.0829   91.1036   13.8797 O.3     1  UNL1       -0.4791
     17 N          66.3305   93.7407   11.0085 N.3     1  UNL1       -0.2737
     18 C          65.2558   92.8252   10.5018 C.3     1  UNL1        0.0758
     19 C          64.5066   91.9461   11.4588 C.3     1  UNL1        0.0609
     20 C          64.8320   91.9826   12.9226 C.3     1  UNL1        0.1687
     21 C          65.9067   92.8982   13.4294 C.3     1  UNL1        0.0609
     22 C          66.6559   93.7773   12.4723 C.3     1  UNL1        0.0758
     23 C          68.0245   94.0121    9.0575 C.3     1  UNL1        0.0173
     24 C          67.0797   94.6197   10.0515 C.3     1  UNL1        0.0576
     25 C          66.8841   96.1065   10.0884 C.3     1  UNL1        0.0173
@<TRIPOS>BOND
     1    23    24    1
     2    24    25    1
     3    24    17    1
     4    17    18    1
     5    18    19    1
     6    19    20    1
     7    20    16    1
     8    16     1    1
     9     1     2   ar
    10     2     3   ar
    11     3     4   ar
    12     4     5   ar
    13     5     6   ar
    14     5     7   ar
    15     7     8   ar
    16     8     9   ar
    17     9    10    1
    18    10    11    1
    19    11    12    1
    20    12    13   am
    21    13    14    2
    22    20    21    1
    23    21    22    1
    24    22    17    1
    25     6     1   ar
    26    13     8    1
    27     9     4   ar
    28    12    15    1
@<TRIPOS>MOLECULE
*****
 25 28 0 0 0
SMALL
GASTEIGER

@<TRIPOS>ATOM
      1 C          62.2209   87.9660   10.7613 C.ar    1  UNL1        0.1385
      2 C          61.9050   86.9706    9.6846 C.ar    1  UNL1        0.0384
      3 C          62.0927   85.5045    9.9402 C.ar    1  UNL1        0.0203
      4 C          62.5963   85.0339   11.2725 C.ar    1  UNL1        0.0602
      5 C          62.9122   86.0294   12.3491 C.ar    1  UNL1        0.0204
      6 C          62.7245   87.4954   12.0935 C.ar    1  UNL1        0.0384
      7 C          63.3894   85.2735   13.5537 C.ar    1  UNL1        0.0233
      8 C          63.3684   83.8109   13.2214 C.ar    1  UNL1        0.1140
      9 N          62.8783   83.6628   11.8116 N.ar    1  UNL1       -0.3219
     10 C          62.7520   82.2986   11.2009 C.3     1  UNL1        0.1273
     11 C          63.1160   81.0825   12.0000 C.3     1  UNL1        0.1142
     12 N          63.6061   81.2306   13.4099 N.am    1  UNL1       -0.2978
     13 C          63.7324   82.5949   14.0206 C.2     1  UNL1        0.2618
     14 O          64.2226   82.7430   15.4306 O.2     1  UNL1       -0.2686
     15 H          63.8450   80.4325   13.9344 H       1  UNL1        0.1499
     16 O          62.0331   89.4322   10.5057 O.3     1  UNL1       -0.4791
     17 N          65.0182   92.3953   12.1056 N.3     1  UNL1       -0.2737
     18 C          64.4049   91.3790   13.0226 C.3     1  UNL1        0.0758
     19 C          63.4099   90.3913   12.4894 C.3     1  UNL1        0.0609
     20 C          63.0281   90.4199   11.0390 C.3     1  UNL1        0.1687
     21 C          63.6415   91.4362   10.1220 C.3     1  UNL1        0.0609
     22 C          64.6365   92.4239   10.6553 C.3     1  UNL1        0.0758
     23 C          66.7051   93.1205   13.9436 C.3     1  UNL1        0.0173
     24 C          66.0132   93.3830   12.6389 C.3     1  UNL1        0.0576
     25 C          66.3163   94.6332   11.8674 C.3     1  UNL1        0.0173
@<TRIPOS>BOND
     1    23    24    1
     2    24    25    1
     3    24    17    1
     4    17    18    1
     5    18    19    1
     6    19    20    1
     7    20    16    1
     8    16     1    1
     9     1     2   ar
    10     2     3   ar
    11     3     4   ar
    12     4     5   ar
    13     5     6   ar
    14     5     7   ar
    15     7     8   ar
    16     8     9   ar
    17     9    10    1
    18    10    11    1
    19    11    12    1
    20    12    13   am
    21    13    14    2
    22    20    21    1
    23    21    22    1
    24    22    17    1
    25     6     1   ar
    26    13     8    1
    27     9     4   ar
    28    12    15    1
@<TRIPOS>MOLECULE
*****
 25 28 0 0 0
SMALL
GASTEIGER

@<TRIPOS>ATOM
      1 C          62.1987   88.9377   11.2395 C.ar    1  UNL1        0.1385
      2 C          62.3030   89.8479   10.0519 C.ar    1  UNL1        0.0384
      3 C          63.1834   91.0609   10.1117 C.ar    1  UNL1        0.0203
      4 C          63.9594   91.3637   11.3591 C.ar    1  UNL1        0.0602
      5 C          63.8551   90.4535   12.5468 C.ar    1  UNL1        0.0204
      6 C          62.9747   89.2405   12.4870 C.ar    1  UNL1        0.0384
      7 C          64.7324   91.0045   13.6315 C.ar    1  UNL1        0.0233
      8 C          65.3790   92.2553   13.1143 C.ar    1  UNL1        0.1140
      9 N          64.9013   92.4773   11.7098 N.ar    1  UNL1       -0.3219
     10 C          65.3855   93.6647   10.9318 C.3     1  UNL1        0.1273
     11 C          66.3476   94.6302   11.5582 C.3     1  UNL1        0.1142
     12 N          66.8252   94.4082   12.9627 N.am    1  UNL1       -0.2978
     13 C          66.3409   93.2207   13.7407 C.2     1  UNL1        0.2618
     14 O          66.8187   92.9987   15.1452 O.2     1  UNL1       -0.2686
     15 H          67.4566   95.0418   13.3738 H       1  UNL1        0.1499
     16 O          61.3183   87.7247   11.1798 O.3     1  UNL1       -0.4791
     17 N          63.1360   83.6131   11.3814 N.3     1  UNL1       -0.2737
     18 C          62.9890   84.3041   10.0582 C.3     1  UNL1        0.0758
     19 C          62.3831   85.6747    9.9910 C.3     1  UNL1        0.0609
     20 C          61.9242   86.3542   11.2470 C.3     1  UNL1        0.1687
     21 C          62.0712   85.6632   12.5702 C.3     1  UNL1        0.0609
     22 C          62.6770   84.2927   12.6374 C.3     1  UNL1        0.0758
     23 C          64.5945   81.8561   12.6206 C.3     1  UNL1        0.0173
     24 C          63.7418   82.2426   11.4486 C.3     1  UNL1        0.0576
     25 C          63.4951   81.2585   10.3437 C.3     1  UNL1        0.0173
@<TRIPOS>BOND
     1    23    24    1
     2    24    25    1
     3    24    17    1
     4    17    18    1
     5    18    19    1
     6    19    20    1
     7    20    16    1
     8    16     1    1
     9     1     2   ar
    10     2     3   ar
    11     3     4   ar
    12     4     5   ar
    13     5     6   ar
    14     5     7   ar
    15     7     8   ar
    16     8     9   ar
    17     9    10    1
    18    10    11    1
    19    11    12    1
    20    12    13   am
    21    13    14    2
    22    20    21    1
    23    21    22    1
    24    22    17    1
    25     6     1   ar
    26    13     8    1
    27     9     4   ar
    28    12    15    1
@<TRIPOS>MOLECULE
*****
 25 28 0 0 0
SMALL
GASTEIGER

@<TRIPOS>ATOM
      1 C          63.7174   89.4278   13.6676 C.ar    1  UNL1        0.1385
      2 C          64.2338   88.8624   14.9574 C.ar    1  UNL1        0.0384
      3 C          64.2870   87.3767   15.1570 C.ar    1  UNL1        0.0203
      4 C          63.8237   86.4565   14.0668 C.ar    1  UNL1        0.0602
      5 C          63.3073   87.0219   12.7770 C.ar    1  UNL1        0.0204
      6 C          63.2541   88.5075   12.5774 C.ar    1  UNL1        0.0384
      7 C          62.9225   85.8755   11.8895 C.ar    1  UNL1        0.0233
      8 C          63.2011   84.6015   12.6308 C.ar    1  UNL1        0.1140
      9 N          63.7580   84.9606   13.9765 N.ar    1  UNL1       -0.3219
     10 C          64.1335   83.8791   14.9456 C.3     1  UNL1        0.1273
     11 C          63.9519   82.4385   14.5691 C.3     1  UNL1        0.1142
     12 N          63.3950   82.0795   13.2234 N.am    1  UNL1       -0.2978
     13 C          63.0195   83.1610   12.2543 C.2     1  UNL1        0.2618
     14 O          62.4625   82.8019   10.9085 O.2     1  UNL1       -0.2686
     15 H          63.2758   81.1340   12.9763 H       1  UNL1        0.1499
     16 O          63.6643   90.9136   13.4679 O.3     1  UNL1       -0.4791
     17 N          66.5987   92.9193   10.7081 N.3     1  UNL1       -0.2737
     18 C          65.2464   92.5156   10.1998 C.3     1  UNL1        0.0758
     19 C          64.2682   91.8470   11.1198 C.3     1  UNL1        0.0609
     20 C          64.6424   91.5821   12.5480 C.3     1  UNL1        0.1687
     21 C          65.9947   91.9859   13.0563 C.3     1  UNL1        0.0609
     22 C          66.9728   92.6544   12.1364 C.3     1  UNL1        0.0758
     23 C          67.4222   95.0430    9.4584 C.3     1  UNL1        0.0173
     24 C          67.5768   93.5879    9.7882 C.3     1  UNL1        0.0576
     25 C          68.7095   92.8013    9.1980 C.3     1  UNL1        0.0173
@<TRIPOS>BOND
     1    23    24    1
     2    24    25    1
     3    24    17    1
     4    17    18    1
     5    18    19    1
     6    19    20    1
     7    20    16    1
     8    16     1    1
     9     1     2   ar
    10     2     3   ar
    11     3     4   ar
    12     4     5   ar
    13     5     6   ar
    14     5     7   ar
    15     7     8   ar
    16     8     9   ar
    17     9    10    1
    18    10    11    1
    19    11    12    1
    20    12    13   am
    21    13    14    2
    22    20    21    1
    23    21    22    1
    24    22    17    1
    25     6     1   ar
    26    13     8    1
    27     9     4   ar
    28    12    15    1
@<TRIPOS>MOLECULE
*****
 25 28 0 0 0
SMALL
GASTEIGER

@<TRIPOS>ATOM
      1 C          63.8541   87.6740   14.5377 C.ar    1  UNL1        0.1385
      2 C          63.2879   87.8058   13.1550 C.ar    1  UNL1        0.0384
      3 C          63.5511   89.0449   12.3518 C.ar    1  UNL1        0.0203
      4 C          64.3805   90.1523   12.9313 C.ar    1  UNL1        0.0602
      5 C          64.9467   90.0205   14.3140 C.ar    1  UNL1        0.0204
      6 C          64.6835   88.7814   15.1172 C.ar    1  UNL1        0.0384
      7 C          65.7216   91.2683   14.6185 C.ar    1  UNL1        0.0233
      8 C          65.6343   92.1712   13.4239 C.ar    1  UNL1        0.1140
      9 N          64.8055   91.4815   12.3811 N.ar    1  UNL1       -0.3219
     10 C          64.5448   92.1529   11.0654 C.3     1  UNL1        0.1273
     11 C          65.1130   93.5140   10.7924 C.3     1  UNL1        0.1142
     12 N          65.9418   94.2037   11.8352 N.am    1  UNL1       -0.2978
     13 C          66.2025   93.5323   13.1509 C.2     1  UNL1        0.2618
     14 O          67.0313   94.2220   14.1937 O.2     1  UNL1       -0.2686
     15 H          66.3147   95.0971   11.6560 H       1  UNL1        0.1499
     16 O          63.5909   86.4348   15.3410 O.3     1  UNL1       -0.4791
     17 N          63.0311   82.4829   13.2628 N.3     1  UNL1       -0.2737
     18 C          64.1882   83.3648   12.8979 C.3     1  UNL1        0.0758
     19 C          64.3749   84.6822   13.5906 C.3     1  UNL1        0.0609
     20 C          63.4043   85.1175   14.6483 C.3     1  UNL1        0.1687
     21 C          62.2472   84.2355   15.0132 C.3     1  UNL1        0.0609
     22 C          62.0606   82.9182   14.3205 C.3     1  UNL1        0.0758
     23 C          63.1348   81.0416   11.1037 C.3     1  UNL1        0.0173
     24 C          62.8445   81.1656   12.5701 C.3     1  UNL1        0.0576
     25 C          62.3677   79.9722   13.3438 C.3     1  UNL1        0.0173
@<TRIPOS>BOND
     1    23    24    1
     2    24    25    1
     3    24    17    1
     4    17    18    1
     5    18    19    1
     6    19    20    1
     7    20    16    1
     8    16     1    1
     9     1     2   ar
    10     2     3   ar
    11     3     4   ar
    12     4     5   ar
    13     5     6   ar
    14     5     7   ar
    15     7     8   ar
    16     8     9   ar
    17     9    10    1
    18    10    11    1
    19    11    12    1
    20    12    13   am
    21    13    14    2
    22    20    21    1
    23    21    22    1
    24    22    17    1
    25     6     1   ar
    26    13     8    1
    27     9     4   ar
    28    12    15    1
@<TRIPOS>MOLECULE
*****
 25 28 0 0 0
SMALL
GASTEIGER

@<TRIPOS>ATOM
      1 C          63.6012   87.1473   15.5363 C.ar    1  UNL1        0.1385
      2 C          62.8986   86.2254   16.4884 C.ar    1  UNL1        0.0384
      3 C          62.5833   84.8184   16.0748 C.ar    1  UNL1        0.0203
      4 C          62.9705   84.3334   14.7093 C.ar    1  UNL1        0.0602
      5 C          63.6731   85.2553   13.7572 C.ar    1  UNL1        0.0204
      6 C          63.9885   86.6622   14.1708 C.ar    1  UNL1        0.0384
      7 C          63.9297   84.5013   12.4862 C.ar    1  UNL1        0.0233
      8 C          63.3856   83.1133   12.6526 C.ar    1  UNL1        0.1140
      9 N          62.7928   83.0095   14.0266 N.ar    1  UNL1       -0.3219
     10 C          62.1679   81.7231   14.4785 C.3     1  UNL1        0.1273
     11 C          62.1357   80.5404   13.5566 C.3     1  UNL1        0.1142
     12 N          62.7285   80.6442   12.1826 N.am    1  UNL1       -0.2978
     13 C          63.3535   81.9307   11.7306 C.2     1  UNL1        0.2618
     14 O          63.9463   82.0344   10.3566 O.2     1  UNL1       -0.2686
     15 H          62.7074   79.8679   11.5775 H       1  UNL1        0.1499
     16 O          63.9166   88.5543   15.9498 O.3     1  UNL1       -0.4791
     17 N          64.9505   91.6359   12.8378 N.3     1  UNL1       -0.2737
     18 C          65.9020   91.3585   13.9637 C.3     1  UNL1        0.0758
     19 C          65.5574   90.3312   15.0011 C.3     1  UNL1        0.0609
     20 C          64.2612   89.5815   14.9125 C.3     1  UNL1        0.1687
     21 C          63.3097   89.8589   13.7866 C.3     1  UNL1        0.0609
     22 C          63.6543   90.8861   12.7493 C.3     1  UNL1        0.0758
     23 C          66.1425   93.8450   12.1679 C.3     1  UNL1        0.0173
     24 C          65.2951   92.6631   11.8005 C.3     1  UNL1        0.0576
     25 C          64.7923   92.5084   10.3957 C.3     1  UNL1        0.0173
@<TRIPOS>BOND
     1    23    24    1
     2    24    25    1
     3    24    17    1
     4    17    18    1
     5    18    19    1
     6    19    20    1
     7    20    16    1
     8    16     1    1
     9     1     2   ar
    10     2     3   ar
    11     3     4   ar
    12     4     5   ar
    13     5     6   ar
    14     5     7   ar
    15     7     8   ar
    16     8     9   ar
    17     9    10    1
    18    10    11    1
    19    11    12    1
    20    12    13   am
    21    13    14    2
    22    20    21    1
    23    21    22    1
    24    22    17    1
    25     6     1   ar
    26    13     8    1
    27     9     4   ar
    28    12    15    1
@<TRIPOS>MOLECULE
*****
 25 28 0 0 0
SMALL
GASTEIGER

@<TRIPOS>ATOM
      1 C          62.6620   88.7595   11.5190 C.ar    1  UNL1        0.1385
      2 C          63.1790   88.6623   12.9237 C.ar    1  UNL1        0.0384
      3 C          64.0447   89.7529   13.4814 C.ar    1  UNL1        0.0203
      4 C          64.3935   90.9407   12.6344 C.ar    1  UNL1        0.0602
      5 C          63.8765   91.0380   11.2297 C.ar    1  UNL1        0.0204
      6 C          63.0108   89.9474   10.6720 C.ar    1  UNL1        0.0384
      7 C          64.3836   92.3191   10.6368 C.ar    1  UNL1        0.0233
      8 C          65.2141   93.0137   11.6751 C.ar    1  UNL1        0.1140
      9 N          65.2202   92.1618   12.9097 N.ar    1  UNL1       -0.3219
     10 C          65.9776   92.6080   14.1250 C.3     1  UNL1        0.1273
     11 C          66.7290   93.9060   14.1058 C.3     1  UNL1        0.1142
     12 N          66.7229   94.7579   12.8712 N.am    1  UNL1       -0.2978
     13 C          65.9654   94.3117   11.6558 C.2     1  UNL1        0.2618
     14 O          65.9593   95.1636   10.4212 O.2     1  UNL1       -0.2686
     15 H          67.2161   95.6099   12.8586 H       1  UNL1        0.1499
     16 O          61.7963   87.6689   10.9612 O.3     1  UNL1       -0.4791
     17 N          62.9921   83.3614   11.4765 N.3     1  UNL1       -0.2737
     18 C          62.9627   83.9729   10.1071 C.3     1  UNL1        0.0758
     19 C          62.5641   85.4088    9.9354 C.3     1  UNL1        0.0609
     20 C          62.1949   86.2331   11.1329 C.3     1  UNL1        0.1687
     21 C          62.2243   85.6215   12.5023 C.3     1  UNL1        0.0609
     22 C          62.6229   84.1857   12.6741 C.3     1  UNL1        0.0758
     23 C          63.8035   81.4182   12.9981 C.3     1  UNL1        0.0173
     24 C          63.3907   81.9256   11.6482 C.3     1  UNL1        0.0576
     25 C          63.3765   80.9972   10.4701 C.3     1  UNL1        0.0173
@<TRIPOS>BOND
     1    23    24    1
     2    24    25    1
     3    24    17    1
     4    17    18    1
     5    18    19    1
     6    19    20    1
     7    20    16    1
     8    16     1    1
     9     1     2   ar
    10     2     3   ar
    11     3     4   ar
    12     4     5   ar
    13     5     6   ar
    14     5     7   ar
    15     7     8   ar
    16     8     9   ar
    17     9    10    1
    18    10    11    1
    19    11    12    1
    20    12    13   am
    21    13    14    2
    22    20    21    1
    23    21    22    1
    24    22    17    1
    25     6     1   ar
    26    13     8    1
    27     9     4   ar
    28    12    15    1
@<TRIPOS>MOLECULE
*****
 25 28 0 0 0
SMALL
GASTEIGER

@<TRIPOS>ATOM
      1 C          62.2714   88.8778   11.4408 C.ar    1  UNL1        0.1385
      2 C          62.4533   89.8909   10.3496 C.ar    1  UNL1        0.0384
      3 C          63.3553   91.0700   10.5638 C.ar    1  UNL1        0.0203
      4 C          64.0754   91.2361   11.8691 C.ar    1  UNL1        0.0602
      5 C          63.8936   90.2231   12.9602 C.ar    1  UNL1        0.0204
      6 C          62.9916   89.0439   12.7460 C.ar    1  UNL1        0.0384
      7 C          64.7281   90.6487   14.1317 C.ar    1  UNL1        0.0233
      8 C          65.4258   91.9249   13.7645 C.ar    1  UNL1        0.1140
      9 N          65.0224   92.2879   12.3662 N.ar    1  UNL1       -0.3219
     10 C          65.5694   93.5293   11.7262 C.3     1  UNL1        0.1273
     11 C          66.5199   94.4076   12.4845 C.3     1  UNL1        0.1142
     12 N          66.9233   94.0446   13.8829 N.am    1  UNL1       -0.2978
     13 C          66.3762   92.8032   14.5229 C.2     1  UNL1        0.2618
     14 O          66.7796   92.4401   15.9214 O.2     1  UNL1       -0.2686
     15 H          67.5471   94.6211   14.3807 H       1  UNL1        0.1499
     16 O          61.3694   87.6986   11.2266 O.3     1  UNL1       -0.4791
     17 N          61.6505   85.3122    7.4219 N.3     1  UNL1       -0.2737
     18 C          62.8092   85.3451    8.3739 C.3     1  UNL1        0.0758
     19 C          62.7155   86.1406    9.6422 C.3     1  UNL1        0.0609
     20 C          61.4631   86.9031    9.9584 C.3     1  UNL1        0.1687
     21 C          60.3044   86.8702    9.0063 C.3     1  UNL1        0.0609
     22 C          60.3981   86.0747    7.7381 C.3     1  UNL1        0.0758
     23 C          63.0027   84.5510    5.3382 C.3     1  UNL1        0.0173
     24 C          61.7443   84.5167    6.1537 C.3     1  UNL1        0.0576
     25 C          60.5795   83.6869    5.7010 C.3     1  UNL1        0.0173
@<TRIPOS>BOND
     1    23    24    1
     2    24    25    1
     3    24    17    1
     4    17    18    1
     5    18    19    1
     6    19    20    1
     7    20    16    1
     8    16     1    1
     9     1     2   ar
    10     2     3   ar
    11     3     4   ar
    12     4     5   ar
    13     5     6   ar
    14     5     7   ar
    15     7     8   ar
    16     8     9   ar
    17     9    10    1
    18    10    11    1
    19    11    12    1
    20    12    13   am
    21    13    14    2
    22    20    21    1
    23    21    22    1
    24    22    17    1
    25     6     1   ar
    26    13     8    1
    27     9     4   ar
    28    12    15    1
@<TRIPOS>MOLECULE
*****
 25 28 0 0 0
SMALL
GASTEIGER

@<TRIPOS>ATOM
      1 C          58.8729   90.2903    5.9191 C.ar    1  UNL1        0.1385
      2 C          57.9299   91.2887    5.3159 C.ar    1  UNL1        0.0384
      3 C          58.4137   92.2301    4.2530 C.ar    1  UNL1        0.0203
      4 C          59.8404   92.1731    3.7934 C.ar    1  UNL1        0.0602
      5 C          60.7833   91.1746    4.3966 C.ar    1  UNL1        0.0204
      6 C          60.2996   90.2332    5.4594 C.ar    1  UNL1        0.0384
      7 C          62.1237   91.3517    3.7470 C.ar    1  UNL1        0.0233
      8 C          62.0091   92.4596    2.7422 C.ar    1  UNL1        0.1140
      9 N          60.5980   92.9673    2.7709 N.ar    1  UNL1       -0.3219
     10 C          60.1852   94.0870    1.8623 C.3     1  UNL1        0.1273
     11 C          61.1835   94.6992    0.9250 C.3     1  UNL1        0.1142
     12 N          62.5947   94.1916    0.8964 N.am    1  UNL1       -0.2978
     13 C          63.0075   93.0717    1.8050 C.2     1  UNL1        0.2618
     14 O          64.4188   92.5641    1.7763 O.2     1  UNL1       -0.2686
     15 H          63.2500   94.5934    0.2812 H       1  UNL1        0.1499
     16 O          58.3891   89.3488    6.9820 O.3     1  UNL1       -0.4791
     17 N          61.3076   86.6599    9.1038 N.3     1  UNL1       -0.2737
     18 C          61.2479   88.1193    9.4450 C.3     1  UNL1        0.0758
     19 C          60.2750   89.0157    8.7377 C.3     1  UNL1        0.0609
     20 C          59.3619   88.4525    7.6893 C.3     1  UNL1        0.1687
     21 C          59.4217   86.9930    7.3482 C.3     1  UNL1        0.0609
     22 C          60.3945   86.0967    8.0554 C.3     1  UNL1        0.0758
     23 C          63.1924   84.8738    9.0196 C.3     1  UNL1        0.0173
     24 C          62.2804   85.7636    9.8111 C.3     1  UNL1        0.0576
     25 C          62.3411   85.7570   11.3099 C.3     1  UNL1        0.0173
@<TRIPOS>BOND
     1    23    24    1
     2    24    25    1
     3    24    17    1
     4    17    18    1
     5    18    19    1
     6    19    20    1
     7    20    16    1
     8    16     1    1
     9     1     2   ar
    10     2     3   ar
    11     3     4   ar
    12     4     5   ar
    13     5     6   ar
    14     5     7   ar
    15     7     8   ar
    16     8     9   ar
    17     9    10    1
    18    10    11    1
    19    11    12    1
    20    12    13   am
    21    13    14    2
    22    20    21    1
    23    21    22    1
    24    22    17    1
    25     6     1   ar
    26    13     8    1
    27     9     4   ar
    28    12    15    1
