@<TRIPOS>MOLECULE
*****
 26 28 0 0 0
SMALL
GASTEIGER

@<TRIPOS>ATOM
      1 N          62.5315   90.5964   11.4314 N.3     1  UNL1       -0.1490
      2 C          63.2803   91.5083   10.5051 C.3     1  UNL1        0.1409
      3 C          64.5865   92.1069   10.9359 C.ar    1  UNL1        0.0770
      4 C          65.5426   93.0331   10.2445 C.ar    1  UNL1        0.1148
      5 N          66.6909   93.2922   11.1741 N.ar    1  UNL1       -0.2226
      6 C          66.4445   92.5263   12.4401 C.ar    1  UNL1        0.1796
      7 N          65.1439   91.7937   12.2928 N.ar    1  UNL1       -0.2923
      8 C          64.3951   90.8818   13.2190 C.3     1  UNL1        0.2360
      9 S          63.0889   90.2832   12.7882 S.O2    1  UNL1        0.0629
     10 O          61.8237   89.4788   12.8344 O.2     1  UNL1       -0.1555
     11 O          63.2068   89.6906   14.1612 O.2     1  UNL1       -0.1555
     12 C          59.9346   90.5708   11.5064 C.3     1  UNL1        0.0240
     13 C          61.2253   89.9977   11.0007 C.3     1  UNL1        0.1019
     14 C          61.2098   88.8261   10.0642 C.ar    1  UNL1       -0.0061
     15 C          62.3148   87.8129   10.1123 C.ar    1  UNL1       -0.0021
     16 C          62.2993   86.6412    9.1757 C.ar    1  UNL1        0.0111
     17 C          61.1788   86.4828    8.1913 C.ar    1  UNL1        0.0577
     18 CL         61.1632   85.3111    7.2548 Cl      1  UNL1       -0.0822
     19 C          60.0737   87.4960    8.1433 C.ar    1  UNL1        0.0111
     20 C          60.0892   88.6677    9.0797 C.ar    1  UNL1       -0.0021
     21 C          64.9524   90.5686   14.5759 C.3     1  UNL1        0.0758
     22 C          65.5053   91.6694   15.4320 C.3     1  UNL1        0.0921
     23 C          66.8927   91.3273   14.9756 C.3     1  UNL1        0.0294
     24 C          64.1179   92.0113   15.8883 C.3     1  UNL1        0.0294
     25 O          66.0582   92.7700   16.2880 O.3     1  UNL1       -0.3866
     26 H          67.0233   92.7988   16.1943 H       1  UNL1        0.2102
@<TRIPOS>BOND
     1    13    12    1
     2    13    14    1
     3    14    15   ar
     4    15    16   ar
     5    16    17   ar
     6    17    18    1
     7    17    19   ar
     8    19    20   ar
     9    13     1    1
    10     1     2    1
    11     2     3    1
    12     3     4   ar
    13     4     5   ar
    14     5     6   ar
    15     6     7   ar
    16     7     8    1
    17     8    21    1
    18    21    22    1
    19    22    23    1
    20    22    24    1
    21    22    25    1
    22     8     9    1
    23     9    10    2
    24     9    11    2
    25    20    14   ar
    26     9     1    1
    27     7     3   ar
    28    25    26    1
@<TRIPOS>MOLECULE
*****
 26 28 0 0 0
SMALL
GASTEIGER

@<TRIPOS>ATOM
      1 N          62.8611   89.9301   11.8925 N.3     1  UNL1       -0.1490
      2 C          63.4502   89.8512   13.2699 C.3     1  UNL1        0.1409
      3 C          64.4986   90.8362   13.6946 C.ar    1  UNL1        0.0770
      4 C          65.2558   91.0051   14.9784 C.ar    1  UNL1        0.1148
      5 N          66.1831   92.1733   14.8194 N.ar    1  UNL1       -0.2226
      6 C          65.9991   92.7264   13.4373 C.ar    1  UNL1        0.1796
      7 N          64.9580   91.9001   12.7421 N.ar    1  UNL1       -0.2923
      8 C          64.3690   91.9789   11.3649 C.3     1  UNL1        0.2360
      9 S          63.3205   90.9938   10.9401 S.O2    1  UNL1        0.0629
     10 O          62.3097   90.2938   10.0809 O.2     1  UNL1       -0.1555
     11 O          63.4289   91.8145    9.6892 O.2     1  UNL1       -0.1555
     12 C          60.3656   89.3402   11.4743 C.3     1  UNL1        0.0240
     13 C          61.8126   88.9450   11.4677 C.3     1  UNL1        0.1019
     14 C          62.2111   87.5647   11.0364 C.ar    1  UNL1       -0.0061
     15 C          62.6077   86.5439   12.0614 C.ar    1  UNL1       -0.0021
     16 C          63.0062   85.1636   11.6300 C.ar    1  UNL1        0.0111
     17 C          63.0082   84.8042   10.1738 C.ar    1  UNL1        0.0577
     18 CL         63.4066   83.4239    9.7423 Cl      1  UNL1       -0.0822
     19 C          62.6116   85.8251    9.1487 C.ar    1  UNL1        0.0111
     20 C          62.2130   87.2053    9.5801 C.ar    1  UNL1       -0.0021
     21 C          64.8284   93.0427   10.4124 C.3     1  UNL1        0.0758
     22 C          66.2238   93.5846   10.5095 C.3     1  UNL1        0.0921
     23 C          65.6749   94.9321   10.8747 C.3     1  UNL1        0.0294
     24 C          66.7725   92.2372   10.1444 C.3     1  UNL1        0.0294
     25 O          67.6190   94.1266   10.6067 O.3     1  UNL1       -0.3866
     26 H          67.5852   95.0649   10.8503 H       1  UNL1        0.2102
@<TRIPOS>BOND
     1    13    12    1
     2    13    14    1
     3    14    15   ar
     4    15    16   ar
     5    16    17   ar
     6    17    18    1
     7    17    19   ar
     8    19    20   ar
     9    13     1    1
    10     1     2    1
    11     2     3    1
    12     3     4   ar
    13     4     5   ar
    14     5     6   ar
    15     6     7   ar
    16     7     8    1
    17     8    21    1
    18    21    22    1
    19    22    23    1
    20    22    24    1
    21    22    25    1
    22     8     9    1
    23     9    10    2
    24     9    11    2
    25    20    14   ar
    26     9     1    1
    27     7     3   ar
    28    25    26    1
@<TRIPOS>MOLECULE
*****
 26 28 0 0 0
SMALL
GASTEIGER

@<TRIPOS>ATOM
      1 N          63.5092   88.5140   13.3467 N.3     1  UNL1       -0.1490
      2 C          62.6981   88.4705   12.0856 C.3     1  UNL1        0.1409
      3 C          62.3833   87.1529   11.4415 C.ar    1  UNL1        0.0770
      4 C          61.6117   86.7992   10.2048 C.ar    1  UNL1        0.1148
      5 N          61.6311   85.3066   10.0575 N.ar    1  UNL1       -0.2226
      6 C          62.4146   84.7378   11.2031 C.ar    1  UNL1        0.1796
      7 N          62.8795   85.8789   12.0585 N.ar    1  UNL1       -0.2923
      8 C          63.6906   85.9225   13.3196 C.3     1  UNL1        0.2360
      9 S          64.0054   87.2401   13.9636 S.O2    1  UNL1        0.0629
     10 O          64.5595   88.2352   14.9397 O.2     1  UNL1       -0.1555
     11 O          64.6941   86.3117   14.9196 O.2     1  UNL1       -0.1555
     12 C          63.3747   90.1064   15.3953 C.3     1  UNL1        0.0240
     13 C          63.8241   89.8317   13.9908 C.3     1  UNL1        0.1019
     14 C          64.5884   90.8746   13.2304 C.ar    1  UNL1       -0.0061
     15 C          64.1150   91.3128   11.8762 C.ar    1  UNL1       -0.0021
     16 C          64.8793   92.3558   11.1158 C.ar    1  UNL1        0.0111
     17 C          66.1169   92.9604   11.7095 C.ar    1  UNL1        0.0577
     18 CL         66.8813   94.0033   10.9492 Cl      1  UNL1       -0.0822
     19 C          66.5903   92.5221   13.0638 C.ar    1  UNL1        0.0111
     20 C          65.8261   91.4792   13.8242 C.ar    1  UNL1       -0.0021
     21 C          64.1868   84.6485   13.9366 C.3     1  UNL1        0.0758
     22 C          63.3133   83.4290   13.9445 C.3     1  UNL1        0.0921
     23 C          64.2576   82.7466   12.9995 C.3     1  UNL1        0.0294
     24 C          62.3692   84.1115   14.8894 C.3     1  UNL1        0.0294
     25 O          62.4400   82.2096   13.9523 O.3     1  UNL1       -0.3866
     26 H          62.8274   81.5307   13.3780 H       1  UNL1        0.2102
@<TRIPOS>BOND
     1    13    12    1
     2    13    14    1
     3    14    15   ar
     4    15    16   ar
     5    16    17   ar
     6    17    18    1
     7    17    19   ar
     8    19    20   ar
     9    13     1    1
    10     1     2    1
    11     2     3    1
    12     3     4   ar
    13     4     5   ar
    14     5     6   ar
    15     6     7   ar
    16     7     8    1
    17     8    21    1
    18    21    22    1
    19    22    23    1
    20    22    24    1
    21    22    25    1
    22     8     9    1
    23     9    10    2
    24     9    11    2
    25    20    14   ar
    26     9     1    1
    27     7     3   ar
    28    25    26    1
@<TRIPOS>MOLECULE
*****
 26 28 0 0 0
SMALL
GASTEIGER

@<TRIPOS>ATOM
      1 N          63.0421   85.5056   13.2663 N.3     1  UNL1       -0.1490
      2 C          62.3266   85.9335   12.0192 C.3     1  UNL1        0.1409
      3 C          62.4051   87.3598   11.5616 C.ar    1  UNL1        0.0770
      4 C          61.8100   88.0695   10.3816 C.ar    1  UNL1        0.1148
      5 N          62.2361   89.5064   10.4417 N.ar    1  UNL1       -0.2226
      6 C          63.0946   89.6848   11.6587 C.ar    1  UNL1        0.1796
      7 N          63.1990   88.3582   12.3509 N.ar    1  UNL1       -0.2923
      8 C          63.9145   87.9302   13.5978 C.3     1  UNL1        0.2360
      9 S          63.8360   86.5039   14.0555 S.O2    1  UNL1        0.0629
     10 O          64.0603   85.2763   14.8877 O.2     1  UNL1       -0.1555
     11 O          64.7078   87.0759   15.1338 O.2     1  UNL1       -0.1555
     12 C          62.8311   83.7666   15.1851 C.3     1  UNL1        0.0240
     13 C          62.9636   84.0792   13.7240 C.3     1  UNL1        0.1019
     14 C          63.0177   82.9655   12.7206 C.ar    1  UNL1       -0.0061
     15 C          63.6775   83.1849   11.3915 C.ar    1  UNL1       -0.0021
     16 C          63.7315   82.0711   10.3881 C.ar    1  UNL1        0.0111
     17 C          63.1257   80.7382   10.7139 C.ar    1  UNL1        0.0577
     18 CL         63.1797   79.6244    9.7106 Cl      1  UNL1       -0.0822
     19 C          62.4659   80.5188   12.0431 C.ar    1  UNL1        0.0111
     20 C          62.4119   81.6325   13.0465 C.ar    1  UNL1       -0.0021
     21 C          64.7084   88.9286   14.3872 C.3     1  UNL1        0.0758
     22 C          64.0889   90.2368   14.7809 C.3     1  UNL1        0.0921
     23 C          63.0993   89.5089   15.6418 C.3     1  UNL1        0.0294
     24 C          65.0786   90.9645   13.9201 C.3     1  UNL1        0.0294
     25 O          63.4695   91.5449   15.1747 O.3     1  UNL1       -0.3866
     26 H          62.7326   91.3831   15.7845 H       1  UNL1        0.2102
@<TRIPOS>BOND
     1    13    12    1
     2    13    14    1
     3    14    15   ar
     4    15    16   ar
     5    16    17   ar
     6    17    18    1
     7    17    19   ar
     8    19    20   ar
     9    13     1    1
    10     1     2    1
    11     2     3    1
    12     3     4   ar
    13     4     5   ar
    14     5     6   ar
    15     6     7   ar
    16     7     8    1
    17     8    21    1
    18    21    22    1
    19    22    23    1
    20    22    24    1
    21    22    25    1
    22     8     9    1
    23     9    10    2
    24     9    11    2
    25    20    14   ar
    26     9     1    1
    27     7     3   ar
    28    25    26    1
@<TRIPOS>MOLECULE
*****
 26 28 0 0 0
SMALL
GASTEIGER

@<TRIPOS>ATOM
      1 N          62.8031   88.0169   12.3512 N.3     1  UNL1       -0.1490
      2 C          63.6606   87.8011   13.5629 C.3     1  UNL1        0.1409
      3 C          64.0966   86.4152   13.9359 C.ar    1  UNL1        0.0770
      4 C          64.9371   85.8973   15.0652 C.ar    1  UNL1        0.1148
      5 N          65.0351   84.4071   14.9245 N.ar    1  UNL1       -0.2226
      6 C          64.2551   84.0040   13.7082 C.ar    1  UNL1        0.1796
      7 N          63.6751   85.2451   13.0972 N.ar    1  UNL1       -0.2923
      8 C          62.8176   85.4610   11.8856 C.3     1  UNL1        0.2360
      9 S          62.3816   86.8469   11.5126 S.O2    1  UNL1        0.0629
     10 O          61.7193   87.9607   10.7572 O.2     1  UNL1       -0.1555
     11 O          61.7301   86.0637   10.4116 O.2     1  UNL1       -0.1555
     12 C          60.9170   89.6896   11.7226 C.3     1  UNL1        0.0240
     13 C          62.3670   89.4028   11.9781 C.3     1  UNL1        0.1019
     14 C          63.3810   90.5020   11.8606 C.ar    1  UNL1       -0.0061
     15 C          63.5914   91.1907   10.5449 C.ar    1  UNL1       -0.0021
     16 C          64.6054   92.2899   10.4274 C.ar    1  UNL1        0.0111
     17 C          65.4089   92.7002   11.6257 C.ar    1  UNL1        0.0577
     18 CL         66.4229   93.7993   11.5083 Cl      1  UNL1       -0.0822
     19 C          65.1985   92.0114   12.9415 C.ar    1  UNL1        0.0111
     20 C          64.1845   90.9123   13.0590 C.ar    1  UNL1       -0.0021
     21 C          62.3961   84.2909   11.0469 C.3     1  UNL1        0.0758
     22 C          63.3470   83.1545   10.8130 C.3     1  UNL1        0.0921
     23 C          62.5882   82.3167   11.7992 C.3     1  UNL1        0.0294
     24 C          64.1057   83.9924    9.8269 C.3     1  UNL1        0.0294
     25 O          64.2978   82.0182   10.5791 O.3     1  UNL1       -0.3866
     26 H          64.0401   81.2625   11.1299 H       1  UNL1        0.2102
@<TRIPOS>BOND
     1    13    12    1
     2    13    14    1
     3    14    15   ar
     4    15    16   ar
     5    16    17   ar
     6    17    18    1
     7    17    19   ar
     8    19    20   ar
     9    13     1    1
    10     1     2    1
    11     2     3    1
    12     3     4   ar
    13     4     5   ar
    14     5     6   ar
    15     6     7   ar
    16     7     8    1
    17     8    21    1
    18    21    22    1
    19    22    23    1
    20    22    24    1
    21    22    25    1
    22     8     9    1
    23     9    10    2
    24     9    11    2
    25    20    14   ar
    26     9     1    1
    27     7     3   ar
    28    25    26    1
@<TRIPOS>MOLECULE
*****
 26 28 0 0 0
SMALL
GASTEIGER

@<TRIPOS>ATOM
      1 N          62.4795   89.1776   11.8799 N.3     1  UNL1       -0.1490
      2 C          61.6142   89.7831   10.8146 C.3     1  UNL1        0.1409
      3 C          60.8745   88.8975    9.8561 C.ar    1  UNL1        0.0770
      4 C          59.9544   89.2045    8.7120 C.ar    1  UNL1        0.1148
      5 N          59.5114   87.9032    8.1116 N.ar    1  UNL1       -0.2226
      6 C          60.1577   86.7921    8.8846 C.ar    1  UNL1        0.1796
      7 N          61.0002   87.4066    9.9629 N.ar    1  UNL1       -0.2923
      8 C          61.8655   86.8012   11.0281 C.3     1  UNL1        0.2360
      9 S          62.6052   87.6868   11.9866 S.O2    1  UNL1        0.0629
     10 O          63.4960   88.1049   13.1187 O.2     1  UNL1       -0.1555
     11 O          63.0403   86.3411   12.4865 O.2     1  UNL1       -0.1555
     12 C          63.0369   89.8858   14.3167 C.3     1  UNL1        0.0240
     13 C          63.2193   90.0632   12.8384 C.3     1  UNL1        0.1019
     14 C          64.1413   91.1260   12.3186 C.ar    1  UNL1       -0.0061
     15 C          65.1522   91.7541   13.2317 C.ar    1  UNL1       -0.0021
     16 C          66.0742   92.8170   12.7118 C.ar    1  UNL1        0.0111
     17 C          65.9853   93.2517   11.2791 C.ar    1  UNL1        0.0577
     18 CL         66.9073   94.3146   10.7592 Cl      1  UNL1       -0.0822
     19 C          64.9744   92.6237   10.3660 C.ar    1  UNL1        0.0111
     20 C          64.0524   91.5608   10.8857 C.ar    1  UNL1       -0.0021
     21 C          61.9912   85.3103   11.1348 C.3     1  UNL1        0.0758
     22 C          62.9791   84.5775   10.2761 C.3     1  UNL1        0.0921
     23 C          62.7800   85.5876    9.1852 C.3     1  UNL1        0.0294
     24 C          63.1782   83.5675   11.3671 C.3     1  UNL1        0.0294
     25 O          63.9669   83.8448    9.4175 O.3     1  UNL1       -0.3866
     26 H          64.0585   84.3027    8.5672 H       1  UNL1        0.2102
@<TRIPOS>BOND
     1    13    12    1
     2    13    14    1
     3    14    15   ar
     4    15    16   ar
     5    16    17   ar
     6    17    18    1
     7    17    19   ar
     8    19    20   ar
     9    13     1    1
    10     1     2    1
    11     2     3    1
    12     3     4   ar
    13     4     5   ar
    14     5     6   ar
    15     6     7   ar
    16     7     8    1
    17     8    21    1
    18    21    22    1
    19    22    23    1
    20    22    24    1
    21    22    25    1
    22     8     9    1
    23     9    10    2
    24     9    11    2
    25    20    14   ar
    26     9     1    1
    27     7     3   ar
    28    25    26    1
@<TRIPOS>MOLECULE
*****
 26 28 0 0 0
SMALL
GASTEIGER

@<TRIPOS>ATOM
      1 N          62.8276   90.0482   12.3259 N.3     1  UNL1       -0.1490
      2 C          62.5915   89.7919   13.7849 C.3     1  UNL1        0.1409
      3 C          63.3994   90.5238   14.8152 C.ar    1  UNL1        0.0770
      4 C          63.3908   90.4796   16.3145 C.ar    1  UNL1        0.1148
      5 N          64.4293   91.4405   16.8125 N.ar    1  UNL1       -0.2226
      6 C          65.0798   92.0786   15.6210 C.ar    1  UNL1        0.1796
      7 N          64.4433   91.5120   14.3866 N.ar    1  UNL1       -0.2923
      8 C          64.6793   91.7683   12.9276 C.3     1  UNL1        0.2360
      9 S          63.8715   91.0364   11.8973 S.O2    1  UNL1        0.0629
     10 O          63.3651   90.5944   10.5563 O.2     1  UNL1       -0.1555
     11 O          64.7395   91.8711   11.0029 O.2     1  UNL1       -0.1555
     12 C          60.9277   90.0286   10.5538 C.3     1  UNL1        0.0240
     13 C          62.0197   89.3162   11.2955 C.3     1  UNL1        0.1019
     14 C          62.3039   87.8720   11.0068 C.ar    1  UNL1       -0.0061
     15 C          62.1334   87.3376    9.6156 C.ar    1  UNL1       -0.0021
     16 C          62.4176   85.8933    9.3269 C.ar    1  UNL1        0.0111
     17 C          62.8723   84.9835   10.4293 C.ar    1  UNL1        0.0577
     18 CL         63.1565   83.5392   10.1408 Cl      1  UNL1       -0.0822
     19 C          63.0428   85.5179   11.8206 C.ar    1  UNL1        0.0111
     20 C          62.7586   86.9622   12.1093 C.ar    1  UNL1       -0.0021
     21 C          65.7232   92.7565   12.4990 C.3     1  UNL1        0.0758
     22 C          66.9657   92.9384   13.3196 C.3     1  UNL1        0.0921
     23 C          67.4488   91.5855   12.8877 C.3     1  UNL1        0.0294
     24 C          66.4826   94.2912   13.7513 C.3     1  UNL1        0.0294
     25 O          68.2082   93.1202   14.1400 O.3     1  UNL1       -0.3866
     26 H          68.7705   92.3346   14.0536 H       1  UNL1        0.2102
@<TRIPOS>BOND
     1    13    12    1
     2    13    14    1
     3    14    15   ar
     4    15    16   ar
     5    16    17   ar
     6    17    18    1
     7    17    19   ar
     8    19    20   ar
     9    13     1    1
    10     1     2    1
    11     2     3    1
    12     3     4   ar
    13     4     5   ar
    14     5     6   ar
    15     6     7   ar
    16     7     8    1
    17     8    21    1
    18    21    22    1
    19    22    23    1
    20    22    24    1
    21    22    25    1
    22     8     9    1
    23     9    10    2
    24     9    11    2
    25    20    14   ar
    26     9     1    1
    27     7     3   ar
    28    25    26    1
@<TRIPOS>MOLECULE
*****
 26 28 0 0 0
SMALL
GASTEIGER

@<TRIPOS>ATOM
      1 N          63.0070   85.7173   12.4570 N.3     1  UNL1       -0.1490
      2 C          62.2794   85.1574   11.2707 C.3     1  UNL1        0.1409
      3 C          61.6940   86.0822   10.2450 C.ar    1  UNL1        0.0770
      4 C          60.9291   85.8239    8.9809 C.ar    1  UNL1        0.1148
      5 N          60.5986   87.1488    8.3602 N.ar    1  UNL1       -0.2226
      6 C          61.1592   88.2260    9.2407 C.ar    1  UNL1        0.1796
      7 N          61.8363   87.5668   10.4056 N.ar    1  UNL1       -0.2923
      8 C          62.5639   88.1266   11.5919 C.3     1  UNL1        0.2360
      9 S          63.1492   87.2018   12.6176 S.O2    1  UNL1        0.0629
     10 O          63.8711   86.7365   13.8474 O.2     1  UNL1       -0.1555
     11 O          63.5422   88.5247   13.2053 O.2     1  UNL1       -0.1555
     12 C          64.5669   85.3162   14.4958 C.3     1  UNL1        0.0240
     13 C          63.5925   84.7924   13.4828 C.3     1  UNL1        0.1019
     14 C          63.2034   83.3438   13.4955 C.ar    1  UNL1       -0.0061
     15 C          63.9463   82.3602   12.6406 C.ar    1  UNL1       -0.0021
     16 C          63.5572   80.9116   12.6534 C.ar    1  UNL1        0.0111
     17 C          62.4254   80.4466   13.5209 C.ar    1  UNL1        0.0577
     18 CL         62.0363   78.9980   13.5337 Cl      1  UNL1       -0.0822
     19 C          61.6825   81.4302   14.3758 C.ar    1  UNL1        0.0111
     20 C          62.0715   82.8788   14.3631 C.ar    1  UNL1       -0.0021
     21 C          62.7061   89.6112   11.7525 C.3     1  UNL1        0.0758
     22 C          61.6281   90.5264   11.2519 C.3     1  UNL1        0.0921
     23 C          60.6620   89.9218   12.2273 C.3     1  UNL1        0.0294
     24 C          62.5943   91.1309   10.2767 C.3     1  UNL1        0.0294
     25 O          60.5502   91.4416   10.7515 O.3     1  UNL1       -0.3866
     26 H          59.7288   91.2702   11.2382 H       1  UNL1        0.2102
@<TRIPOS>BOND
     1    13    12    1
     2    13    14    1
     3    14    15   ar
     4    15    16   ar
     5    16    17   ar
     6    17    18    1
     7    17    19   ar
     8    19    20   ar
     9    13     1    1
    10     1     2    1
    11     2     3    1
    12     3     4   ar
    13     4     5   ar
    14     5     6   ar
    15     6     7   ar
    16     7     8    1
    17     8    21    1
    18    21    22    1
    19    22    23    1
    20    22    24    1
    21    22    25    1
    22     8     9    1
    23     9    10    2
    24     9    11    2
    25    20    14   ar
    26     9     1    1
    27     7     3   ar
    28    25    26    1
@<TRIPOS>MOLECULE
*****
 26 28 0 0 0
SMALL
GASTEIGER

@<TRIPOS>ATOM
      1 N          63.0684   86.5325   12.5893 N.3     1  UNL1       -0.1490
      2 C          62.2901   86.0375   11.4063 C.3     1  UNL1        0.1409
      3 C          61.6464   87.0162   10.4694 C.ar    1  UNL1        0.0770
      4 C          60.8241   86.8265    9.2293 C.ar    1  UNL1        0.1148
      5 N          60.4504   88.1828    8.7090 N.ar    1  UNL1       -0.2226
      6 C          61.0417   89.2108    9.6275 C.ar    1  UNL1        0.1796
      7 N          61.7810   88.4898   10.7155 N.ar    1  UNL1       -0.2923
      8 C          62.5592   88.9846   11.8985 C.3     1  UNL1        0.2360
      9 S          63.2029   88.0059   12.8354 S.O2    1  UNL1        0.0629
     10 O          63.9880   87.4750   13.9980 O.2     1  UNL1       -0.1555
     11 O          63.6101   89.2951   13.4853 O.2     1  UNL1       -0.1555
     12 C          64.7170   86.0292   14.5333 C.3     1  UNL1        0.0240
     13 C          63.7121   85.5537   13.5262 C.3     1  UNL1        0.1019
     14 C          63.3510   84.0995   13.4561 C.ar    1  UNL1       -0.0061
     15 C          63.9528   83.2277   12.3942 C.ar    1  UNL1       -0.0021
     16 C          63.5916   81.7735   12.3241 C.ar    1  UNL1        0.0111
     17 C          62.6287   81.1912   13.3158 C.ar    1  UNL1        0.0577
     18 CL         62.2675   79.7370   13.2457 Cl      1  UNL1       -0.0822
     19 C          62.0269   82.0631   14.3778 C.ar    1  UNL1        0.0111
     20 C          62.3880   83.5173   14.4479 C.ar    1  UNL1       -0.0021
     21 C          62.6937   90.4582   12.1446 C.3     1  UNL1        0.0758
     22 C          63.7699   91.2394   11.4504 C.3     1  UNL1        0.0921
     23 C          63.1057   90.9812   10.1304 C.3     1  UNL1        0.0294
     24 C          64.4339   91.4975   12.7704 C.3     1  UNL1        0.0294
     25 O          64.8459   92.0205   10.7563 O.3     1  UNL1       -0.3866
     26 H          64.6730   92.0315    9.8019 H       1  UNL1        0.2102
@<TRIPOS>BOND
     1    13    12    1
     2    13    14    1
     3    14    15   ar
     4    15    16   ar
     5    16    17   ar
     6    17    18    1
     7    17    19   ar
     8    19    20   ar
     9    13     1    1
    10     1     2    1
    11     2     3    1
    12     3     4   ar
    13     4     5   ar
    14     5     6   ar
    15     6     7   ar
    16     7     8    1
    17     8    21    1
    18    21    22    1
    19    22    23    1
    20    22    24    1
    21    22    25    1
    22     8     9    1
    23     9    10    2
    24     9    11    2
    25    20    14   ar
    26     9     1    1
    27     7     3   ar
    28    25    26    1
