@<TRIPOS>MOLECULE
*****
 33 38 0 0 0
SMALL
GASTEIGER

@<TRIPOS>ATOM
      1 N          63.5714   91.3113   11.3468 N.pl3   1  UNL1       -0.3046
      2 C          63.0623   90.6444   12.5901 C.3     1  UNL1        0.1081
      3 C          61.8958   89.7044   12.5131 C.3     1  UNL1        0.0938
      4 N          61.2385   89.4314   11.1927 N.3     1  UNL1       -0.2695
      5 C          61.7477   90.0984    9.9493 C.3     1  UNL1        0.0938
      6 C          62.9141   91.0383   10.0264 C.3     1  UNL1        0.1081
      7 C          68.2836   92.2420   16.2640 C.3     1  UNL1        0.0521
      8 C          67.3971   92.2443   15.0540 C.ar    1  UNL1        0.0593
      9 C          66.2307   91.3044   14.9769 C.ar    1  UNL1        0.0148
     10 C          65.3443   91.3067   13.7669 C.ar    1  UNL1        0.0039
     11 C          65.6243   92.2489   12.6339 C.ar    1  UNL1        0.0310
     12 C          64.7378   92.2512   11.4238 C.ar    1  UNL1        0.0493
     13 C          65.0179   93.1935   10.2908 C.ar    1  UNL1        0.0146
     14 C          66.1843   94.1335   10.3678 C.ar    1  UNL1        0.0028
     15 C          67.0707   94.1312   11.5779 C.ar    1  UNL1        0.0192
     16 C          66.7907   93.1889   12.7109 C.ar    1  UNL1        0.0821
     17 N          67.6772   93.1866   13.9209 N.ar    1  UNL1       -0.2496
     18 C          60.0721   88.4915   11.1157 C.3     1  UNL1        0.0770
     19 C          59.8518   87.6692    9.8806 C.3     1  UNL1        0.0468
     20 C          60.8372   86.6028    9.5039 C.ar    1  UNL1        0.0146
     21 C          61.0887   86.2908    8.0585 C.ar    1  UNL1       -0.0011
     22 C          62.0740   85.2244    7.6818 C.ar    1  UNL1        0.0014
     23 C          62.8079   84.4701    8.7506 C.ar    1  UNL1        0.0206
     24 C          62.5564   84.7821   10.1961 C.ar    1  UNL1        0.0998
     25 C          61.5711   85.8484   10.5727 C.ar    1  UNL1        0.1512
     26 O          61.3195   86.1605   12.0182 O.3     1  UNL1       -0.4661
     27 C          62.0534   85.4061   13.0871 C.3     1  UNL1        0.2707
     28 C          63.0388   84.3397   12.7104 C.ar    1  UNL1        0.1916
     29 N          63.9051   83.4364   13.5371 N.ar    1  UNL1       -0.1295
     30 N          64.6920   82.5661   12.6026 N.ar    1  UNL1       -0.1332
     31 C          64.3120   82.9315   11.1983 C.ar    1  UNL1        0.1474
     32 C          64.8579   82.3100    9.9471 C.3     1  UNL1        0.0742
     33 N          63.2903   84.0277   11.2649 N.ar    1  UNL1       -0.2748
@<TRIPOS>BOND
     1     7     8    1
     2     8     9   ar
     3     9    10   ar
     4    10    11   ar
     5    11    12   ar
     6    12     1    1
     7     1     2    1
     8     2     3    1
     9     3     4    1
    10     4    18    1
    11    18    19    1
    12    19    20    1
    13    20    21   ar
    14    21    22   ar
    15    22    23   ar
    16    23    24   ar
    17    24    25   ar
    18    25    26    1
    19    26    27    1
    20    27    28    1
    21    28    29   ar
    22    29    30   ar
    23    30    31   ar
    24    31    32    1
    25    31    33   ar
    26     4     5    1
    27     5     6    1
    28    12    13   ar
    29    13    14   ar
    30    14    15   ar
    31    15    16   ar
    32    16    17   ar
    33    17     8   ar
    34    16    11   ar
    35     6     1    1
    36    25    20   ar
    37    33    28   ar
    38    33    24    1
@<TRIPOS>MOLECULE
*****
 33 38 0 0 0
SMALL
GASTEIGER

@<TRIPOS>ATOM
      1 N          61.2433   92.5013    2.9072 N.pl3   1  UNL1       -0.3046
      2 C          61.8889   91.3807    3.6671 C.3     1  UNL1        0.1081
      3 C          61.1075   90.6301    4.7045 C.3     1  UNL1        0.0938
      4 N          59.6806   91.0002    4.9820 N.3     1  UNL1       -0.2695
      5 C          59.0351   92.1208    4.2220 C.3     1  UNL1        0.0938
      6 C          59.8164   92.8714    3.1847 C.3     1  UNL1        0.1081
      7 C          59.8190   93.8808   -3.6744 C.3     1  UNL1        0.0521
      8 C          60.3705   93.7236   -2.2883 C.ar    1  UNL1        0.0593
      9 C          59.5891   92.9730   -1.2510 C.ar    1  UNL1        0.0148
     10 C          60.1405   92.8158    0.1351 C.ar    1  UNL1        0.0039
     11 C          61.4733   93.4090    0.4838 C.ar    1  UNL1        0.0310
     12 C          62.0247   93.2518    1.8699 C.ar    1  UNL1        0.0493
     13 C          63.3576   93.8451    2.2186 C.ar    1  UNL1        0.0146
     14 C          64.1389   94.5956    1.1813 C.ar    1  UNL1        0.0028
     15 C          63.5875   94.7529   -0.2048 C.ar    1  UNL1        0.0192
     16 C          62.2547   94.1596   -0.5535 C.ar    1  UNL1        0.0821
     17 N          61.7033   94.3169   -1.9396 N.ar    1  UNL1       -0.2496
     18 C          58.8992   90.2496    6.0193 C.3     1  UNL1        0.0770
     19 C          59.4205   90.1468    7.4221 C.3     1  UNL1        0.0468
     20 C          59.8501   88.8169    7.9670 C.ar    1  UNL1        0.0146
     21 C          59.4076   87.5520    7.2932 C.ar    1  UNL1       -0.0011
     22 C          59.8372   86.2221    7.8381 C.ar    1  UNL1        0.0014
     23 C          60.7094   86.1573    9.0567 C.ar    1  UNL1        0.0206
     24 C          61.1520   87.4222    9.7304 C.ar    1  UNL1        0.0998
     25 C          60.7224   88.7520    9.1856 C.ar    1  UNL1        0.1512
     26 O          61.1650   90.0171    9.8593 O.3     1  UNL1       -0.4661
     27 C          62.0372   89.9522   11.0779 C.3     1  UNL1        0.2707
     28 C          62.4669   88.6223   11.6228 C.ar    1  UNL1        0.1916
     29 N          63.3185   88.2475   12.7992 N.ar    1  UNL1       -0.1295
     30 N          63.4022   86.7507   12.8526 N.ar    1  UNL1       -0.1332
     31 C          62.6024   86.2007   11.7091 C.ar    1  UNL1        0.1474
     32 C          62.4137   84.7488   11.3830 C.3     1  UNL1        0.0742
     33 N          62.0243   87.3574   10.9490 N.ar    1  UNL1       -0.2748
@<TRIPOS>BOND
     1     7     8    1
     2     8     9   ar
     3     9    10   ar
     4    10    11   ar
     5    11    12   ar
     6    12     1    1
     7     1     2    1
     8     2     3    1
     9     3     4    1
    10     4    18    1
    11    18    19    1
    12    19    20    1
    13    20    21   ar
    14    21    22   ar
    15    22    23   ar
    16    23    24   ar
    17    24    25   ar
    18    25    26    1
    19    26    27    1
    20    27    28    1
    21    28    29   ar
    22    29    30   ar
    23    30    31   ar
    24    31    32    1
    25    31    33   ar
    26     4     5    1
    27     5     6    1
    28    12    13   ar
    29    13    14   ar
    30    14    15   ar
    31    15    16   ar
    32    16    17   ar
    33    17     8   ar
    34    16    11   ar
    35     6     1    1
    36    25    20   ar
    37    33    28   ar
    38    33    24    1
@<TRIPOS>MOLECULE
*****
 33 38 0 0 0
SMALL
GASTEIGER

@<TRIPOS>ATOM
      1 N          63.2143   90.7346   11.7483 N.pl3   1  UNL1       -0.3046
      2 C          63.3325   90.6913   10.2536 C.3     1  UNL1        0.1081
      3 C          62.2299   90.0931    9.4310 C.3     1  UNL1        0.0938
      4 N          61.0091   89.5383   10.1032 N.3     1  UNL1       -0.2695
      5 C          60.8910   89.5816   11.5980 C.3     1  UNL1        0.0938
      6 C          61.9936   90.1797   12.4205 C.3     1  UNL1        0.1081
      7 C          67.2577   96.1698   10.5821 C.3     1  UNL1        0.0521
      8 C          66.5225   94.9605   11.0792 C.ar    1  UNL1        0.0593
      9 C          65.4199   94.3624   10.2568 C.ar    1  UNL1        0.0148
     10 C          64.6847   93.1531   10.7539 C.ar    1  UNL1        0.0039
     11 C          65.0521   92.5420   12.0736 C.ar    1  UNL1        0.0310
     12 C          64.3169   91.3327   12.5708 C.ar    1  UNL1        0.0493
     13 C          64.6843   90.7216   13.8905 C.ar    1  UNL1        0.0146
     14 C          65.7869   91.3197   14.7130 C.ar    1  UNL1        0.0028
     15 C          66.5221   92.5290   14.2158 C.ar    1  UNL1        0.0192
     16 C          66.1547   93.1401   12.8961 C.ar    1  UNL1        0.0821
     17 N          66.8899   94.3494   12.3990 N.ar    1  UNL1       -0.2496
     18 C          59.9066   88.9401    9.2808 C.3     1  UNL1        0.0770
     19 C          59.5908   87.4785    9.3991 C.3     1  UNL1        0.0468
     20 C          60.6603   86.4574    9.1469 C.ar    1  UNL1        0.0146
     21 C          60.9777   86.0348    7.7431 C.ar    1  UNL1       -0.0011
     22 C          62.0471   85.0137    7.4908 C.ar    1  UNL1        0.0014
     23 C          62.7991   84.4152    8.6424 C.ar    1  UNL1        0.0206
     24 C          62.4818   84.8377   10.0462 C.ar    1  UNL1        0.0998
     25 C          61.4124   85.8588   10.2984 C.ar    1  UNL1        0.1512
     26 O          61.0950   86.2814   11.7023 O.3     1  UNL1       -0.4661
     27 C          61.8470   85.6829   12.8539 C.3     1  UNL1        0.2707
     28 C          62.9165   84.6617   12.6016 C.ar    1  UNL1        0.1916
     29 N          63.8186   83.9030   13.5292 N.ar    1  UNL1       -0.1295
     30 N          64.6935   83.0115   12.6987 N.ar    1  UNL1       -0.1332
     31 C          64.3321   83.2192   11.2578 C.ar    1  UNL1        0.1474
     32 C          64.9589   82.5284   10.0831 C.3     1  UNL1        0.0742
     33 N          63.2339   84.2392   11.1978 N.ar    1  UNL1       -0.2748
@<TRIPOS>BOND
     1     7     8    1
     2     8     9   ar
     3     9    10   ar
     4    10    11   ar
     5    11    12   ar
     6    12     1    1
     7     1     2    1
     8     2     3    1
     9     3     4    1
    10     4    18    1
    11    18    19    1
    12    19    20    1
    13    20    21   ar
    14    21    22   ar
    15    22    23   ar
    16    23    24   ar
    17    24    25   ar
    18    25    26    1
    19    26    27    1
    20    27    28    1
    21    28    29   ar
    22    29    30   ar
    23    30    31   ar
    24    31    32    1
    25    31    33   ar
    26     4     5    1
    27     5     6    1
    28    12    13   ar
    29    13    14   ar
    30    14    15   ar
    31    15    16   ar
    32    16    17   ar
    33    17     8   ar
    34    16    11   ar
    35     6     1    1
    36    25    20   ar
    37    33    28   ar
    38    33    24    1
@<TRIPOS>MOLECULE
*****
 33 38 0 0 0
SMALL
GASTEIGER

@<TRIPOS>ATOM
      1 N          63.3438   84.8750   14.4518 N.pl3   1  UNL1       -0.3046
      2 C          64.2610   86.0468   14.2640 C.3     1  UNL1        0.1081
      3 C          64.2228   87.1920   15.2322 C.3     1  UNL1        0.0938
      4 N          63.2673   87.1652   16.3881 N.3     1  UNL1       -0.2695
      5 C          62.3500   85.9933   16.5759 C.3     1  UNL1        0.0938
      6 C          62.3882   84.8482   15.6078 C.3     1  UNL1        0.1081
      7 C          62.7395   84.7484    7.6057 C.3     1  UNL1        0.0521
      8 C          62.9002   84.4938    9.0752 C.ar    1  UNL1        0.0593
      9 C          62.8619   85.6388   10.0434 C.ar    1  UNL1        0.0148
     10 C          63.0225   85.3842   11.5129 C.ar    1  UNL1        0.0039
     11 C          63.2214   83.9846   12.0142 C.ar    1  UNL1        0.0310
     12 C          63.3820   83.7300   13.4837 C.ar    1  UNL1        0.0493
     13 C          63.5809   82.3302   13.9850 C.ar    1  UNL1        0.0146
     14 C          63.6191   81.1852   13.0168 C.ar    1  UNL1        0.0028
     15 C          63.4585   81.4398   11.5474 C.ar    1  UNL1        0.0192
     16 C          63.2597   82.8394   11.0460 C.ar    1  UNL1        0.0821
     17 N          63.0990   83.0940    9.5765 N.ar    1  UNL1       -0.2496
     18 C          63.2290   88.3102   17.3563 C.3     1  UNL1        0.0770
     19 C          62.7848   89.6670   16.8961 C.3     1  UNL1        0.0468
     20 C          63.6137   90.4322   15.9074 C.ar    1  UNL1        0.0146
     21 C          64.8169   91.1985   16.3713 C.ar    1  UNL1       -0.0011
     22 C          65.6457   91.9636   15.3827 C.ar    1  UNL1        0.0014
     23 C          65.2715   91.9626   13.9301 C.ar    1  UNL1        0.0206
     24 C          64.0683   91.1963   13.4662 C.ar    1  UNL1        0.0998
     25 C          63.2395   90.4312   14.4548 C.ar    1  UNL1        0.1512
     26 O          62.0362   89.6648   13.9909 O.3     1  UNL1       -0.4661
     27 C          61.6620   89.6638   12.5384 C.3     1  UNL1        0.2707
     28 C          62.4909   90.4290   11.5497 C.ar    1  UNL1        0.1916
     29 N          62.3687   90.6117   10.0660 N.ar    1  UNL1       -0.1295
     30 N          63.4964   91.4910    9.6128 N.ar    1  UNL1       -0.1332
     31 C          64.3155   91.8516   10.8166 C.ar    1  UNL1        0.1474
     32 C          65.5408   92.7167   10.8223 C.3     1  UNL1        0.0742
     33 N          63.6940   91.1952   12.0136 N.ar    1  UNL1       -0.2748
@<TRIPOS>BOND
     1     7     8    1
     2     8     9   ar
     3     9    10   ar
     4    10    11   ar
     5    11    12   ar
     6    12     1    1
     7     1     2    1
     8     2     3    1
     9     3     4    1
    10     4    18    1
    11    18    19    1
    12    19    20    1
    13    20    21   ar
    14    21    22   ar
    15    22    23   ar
    16    23    24   ar
    17    24    25   ar
    18    25    26    1
    19    26    27    1
    20    27    28    1
    21    28    29   ar
    22    29    30   ar
    23    30    31   ar
    24    31    32    1
    25    31    33   ar
    26     4     5    1
    27     5     6    1
    28    12    13   ar
    29    13    14   ar
    30    14    15   ar
    31    15    16   ar
    32    16    17   ar
    33    17     8   ar
    34    16    11   ar
    35     6     1    1
    36    25    20   ar
    37    33    28   ar
    38    33    24    1
@<TRIPOS>MOLECULE
*****
 33 38 0 0 0
SMALL
GASTEIGER

@<TRIPOS>ATOM
      1 N          63.4777   89.1238   12.7132 N.pl3   1  UNL1       -0.3046
      2 C          64.1130   88.7176   14.0098 C.3     1  UNL1        0.1081
      3 C          64.7324   89.7548   14.8990 C.3     1  UNL1        0.0938
      4 N          64.7164   91.1983   14.4914 N.3     1  UNL1       -0.2695
      5 C          64.0810   91.6045   13.1947 C.3     1  UNL1        0.0938
      6 C          63.4617   90.5673   12.3056 C.3     1  UNL1        0.1081
      7 C          63.2260   82.2782   13.2829 C.3     1  UNL1        0.0521
      8 C          63.1341   83.7303   12.9182 C.ar    1  UNL1        0.0593
      9 C          63.7534   84.7675   13.8073 C.ar    1  UNL1        0.0148
     10 C          63.6615   86.2196   13.4426 C.ar    1  UNL1        0.0039
     11 C          62.9503   86.6345   12.1888 C.ar    1  UNL1        0.0310
     12 C          62.8584   88.0865   11.8241 C.ar    1  UNL1        0.0493
     13 C          62.1472   88.5014   10.5702 C.ar    1  UNL1        0.0146
     14 C          61.5279   87.4641    9.6811 C.ar    1  UNL1        0.0028
     15 C          61.6198   86.0120   10.0458 C.ar    1  UNL1        0.0192
     16 C          62.3310   85.5972   11.2996 C.ar    1  UNL1        0.0821
     17 N          62.4229   84.1451   11.6643 N.ar    1  UNL1       -0.2496
     18 C          65.3357   92.2356   15.3805 C.3     1  UNL1        0.0770
     19 C          66.4268   93.1200   14.8540 C.3     1  UNL1        0.0468
     20 C          66.9665   92.9030   13.4713 C.ar    1  UNL1        0.0146
     21 C          67.7229   91.6483   13.1497 C.ar    1  UNL1       -0.0011
     22 C          68.2625   91.4315   11.7671 C.ar    1  UNL1        0.0014
     23 C          68.0457   92.4693   10.7060 C.ar    1  UNL1        0.0206
     24 C          67.2893   93.7240   11.0276 C.ar    1  UNL1        0.0998
     25 C          66.7497   93.9409   12.4102 C.ar    1  UNL1        0.1512
     26 O          65.9932   95.1957   12.7319 O.3     1  UNL1       -0.4661
     27 C          65.7764   96.2335   11.6708 C.3     1  UNL1        0.2707
     28 C          66.3160   96.0166   10.2881 C.ar    1  UNL1        0.1916
     29 N          66.2595   96.8551    9.0457 N.ar    1  UNL1       -0.1295
     30 N          66.9811   96.1186    7.9562 N.ar    1  UNL1       -0.1332
     31 C          67.4835   94.8249    8.5253 C.ar    1  UNL1        0.1474
     32 C          68.2605   93.7781    7.7835 C.3     1  UNL1        0.0742
     33 N          67.0725   94.7619    9.9665 N.ar    1  UNL1       -0.2748
@<TRIPOS>BOND
     1     7     8    1
     2     8     9   ar
     3     9    10   ar
     4    10    11   ar
     5    11    12   ar
     6    12     1    1
     7     1     2    1
     8     2     3    1
     9     3     4    1
    10     4    18    1
    11    18    19    1
    12    19    20    1
    13    20    21   ar
    14    21    22   ar
    15    22    23   ar
    16    23    24   ar
    17    24    25   ar
    18    25    26    1
    19    26    27    1
    20    27    28    1
    21    28    29   ar
    22    29    30   ar
    23    30    31   ar
    24    31    32    1
    25    31    33   ar
    26     4     5    1
    27     5     6    1
    28    12    13   ar
    29    13    14   ar
    30    14    15   ar
    31    15    16   ar
    32    16    17   ar
    33    17     8   ar
    34    16    11   ar
    35     6     1    1
    36    25    20   ar
    37    33    28   ar
    38    33    24    1
@<TRIPOS>MOLECULE
*****
 33 38 0 0 0
SMALL
GASTEIGER

@<TRIPOS>ATOM
      1 N          63.5023   89.0143   12.8471 N.pl3   1  UNL1       -0.3046
      2 C          64.0761   88.7963   14.2158 C.3     1  UNL1        0.1081
      3 C          64.6599   89.9497   14.9767 C.3     1  UNL1        0.0938
      4 N          64.6698   91.3210   14.3689 N.3     1  UNL1       -0.2695
      5 C          64.0960   91.5390   13.0002 C.3     1  UNL1        0.0938
      6 C          63.5123   90.3856   12.2394 C.3     1  UNL1        0.1081
      7 C          59.3308   88.8761    7.3856 C.3     1  UNL1        0.0521
      8 C          60.2277   88.6223    8.5607 C.ar    1  UNL1        0.0593
      9 C          60.8115   89.7757    9.3216 C.ar    1  UNL1        0.0148
     10 C          61.7084   89.5219   10.4968 C.ar    1  UNL1        0.0039
     11 C          62.0216   88.1147   10.9111 C.ar    1  UNL1        0.0310
     12 C          62.9186   87.8609   12.0863 C.ar    1  UNL1        0.0493
     13 C          63.2318   86.4536   12.5006 C.ar    1  UNL1        0.0146
     14 C          62.6481   85.3003   11.7397 C.ar    1  UNL1        0.0028
     15 C          61.7511   85.5541   10.5646 C.ar    1  UNL1        0.0192
     16 C          61.4379   86.9613   10.1502 C.ar    1  UNL1        0.0821
     17 N          60.5409   87.2151    8.9751 N.ar    1  UNL1       -0.2496
     18 C          65.2536   92.4744   15.1298 C.3     1  UNL1        0.0770
     19 C          66.5892   93.0328   14.7371 C.3     1  UNL1        0.0468
     20 C          67.0916   92.8595   13.3344 C.ar    1  UNL1        0.0146
     21 C          67.8834   91.6397   12.9667 C.ar    1  UNL1       -0.0011
     22 C          68.3857   91.4664   11.5640 C.ar    1  UNL1        0.0014
     23 C          68.0963   92.5129   10.5290 C.ar    1  UNL1        0.0206
     24 C          67.3045   93.7326   10.8967 C.ar    1  UNL1        0.0998
     25 C          66.8022   93.9059   12.2994 C.ar    1  UNL1        0.1512
     26 O          66.0104   95.1257   12.6672 O.3     1  UNL1       -0.4661
     27 C          65.7209   96.1722   11.6322 C.3     1  UNL1        0.2707
     28 C          66.2233   95.9988   10.2295 C.ar    1  UNL1        0.1916
     29 N          66.0955   96.8552    9.0046 N.ar    1  UNL1       -0.1295
     30 N          66.8084   96.1647    7.8799 N.ar    1  UNL1       -0.1332
     31 C          67.3767   94.8816    8.4096 C.ar    1  UNL1        0.1474
     32 C          68.1677   93.8773    7.6250 C.3     1  UNL1        0.0742
     33 N          67.0151   94.7791    9.8618 N.ar    1  UNL1       -0.2748
@<TRIPOS>BOND
     1     7     8    1
     2     8     9   ar
     3     9    10   ar
     4    10    11   ar
     5    11    12   ar
     6    12     1    1
     7     1     2    1
     8     2     3    1
     9     3     4    1
    10     4    18    1
    11    18    19    1
    12    19    20    1
    13    20    21   ar
    14    21    22   ar
    15    22    23   ar
    16    23    24   ar
    17    24    25   ar
    18    25    26    1
    19    26    27    1
    20    27    28    1
    21    28    29   ar
    22    29    30   ar
    23    30    31   ar
    24    31    32    1
    25    31    33   ar
    26     4     5    1
    27     5     6    1
    28    12    13   ar
    29    13    14   ar
    30    14    15   ar
    31    15    16   ar
    32    16    17   ar
    33    17     8   ar
    34    16    11   ar
    35     6     1    1
    36    25    20   ar
    37    33    28   ar
    38    33    24    1
@<TRIPOS>MOLECULE
*****
 33 38 0 0 0
SMALL
GASTEIGER

@<TRIPOS>ATOM
      1 N          62.1332   87.7718   11.2780 N.pl3   1  UNL1       -0.3046
      2 C          62.4195   89.1101   10.6641 C.3     1  UNL1        0.1081
      3 C          61.5885   89.6019    9.5162 C.3     1  UNL1        0.0938
      4 N          60.4713   88.7553    8.9822 N.3     1  UNL1       -0.2695
      5 C          60.1851   87.4169    9.5961 C.3     1  UNL1        0.0938
      6 C          61.0161   86.9252   10.7440 C.3     1  UNL1        0.1081
      7 C          63.7332   81.3892   13.2660 C.3     1  UNL1        0.0521
      8 C          63.5409   82.8619   13.0560 C.ar    1  UNL1        0.0593
      9 C          62.7100   83.3536   11.9081 C.ar    1  UNL1        0.0148
     10 C          62.5177   84.8263   11.6981 C.ar    1  UNL1        0.0039
     11 C          63.1564   85.8074   12.6359 C.ar    1  UNL1        0.0310
     12 C          62.9642   87.2801   12.4259 C.ar    1  UNL1        0.0493
     13 C          63.6029   88.2611   13.3638 C.ar    1  UNL1        0.0146
     14 C          64.4339   87.7694   14.5117 C.ar    1  UNL1        0.0028
     15 C          64.6262   86.2967   14.7217 C.ar    1  UNL1        0.0192
     16 C          63.9875   85.3157   13.7839 C.ar    1  UNL1        0.0821
     17 N          64.1797   83.8429   13.9939 N.ar    1  UNL1       -0.2496
     18 C          59.6403   89.2470    7.8343 C.3     1  UNL1        0.0770
     19 C          60.2482   89.3747    6.4689 C.3     1  UNL1        0.0468
     20 C          59.7819   90.4549    5.5384 C.ar    1  UNL1        0.0146
     21 C          58.3555   90.9171    5.5807 C.ar    1  UNL1       -0.0011
     22 C          57.8893   91.9973    4.6502 C.ar    1  UNL1        0.0014
     23 C          58.8495   92.6152    3.6774 C.ar    1  UNL1        0.0206
     24 C          60.2758   92.1530    3.6351 C.ar    1  UNL1        0.0998
     25 C          60.7420   91.0728    4.5656 C.ar    1  UNL1        0.1512
     26 O          62.1684   90.6105    4.5233 O.3     1  UNL1       -0.4661
     27 C          63.1286   91.2284    3.5505 C.3     1  UNL1        0.2707
     28 C          62.6623   92.3086    2.6200 C.ar    1  UNL1        0.1916
     29 N          63.3743   93.0982    1.5619 N.ar    1  UNL1       -0.1295
     30 N          62.3879   94.0484    0.9502 N.ar    1  UNL1       -0.1332
     31 C          61.0664   93.8461    1.6303 C.ar    1  UNL1        0.1474
     32 C          59.7980   94.5887    1.3310 C.3     1  UNL1        0.0742
     33 N          61.2360   92.7709    2.6623 N.ar    1  UNL1       -0.2748
@<TRIPOS>BOND
     1     7     8    1
     2     8     9   ar
     3     9    10   ar
     4    10    11   ar
     5    11    12   ar
     6    12     1    1
     7     1     2    1
     8     2     3    1
     9     3     4    1
    10     4    18    1
    11    18    19    1
    12    19    20    1
    13    20    21   ar
    14    21    22   ar
    15    22    23   ar
    16    23    24   ar
    17    24    25   ar
    18    25    26    1
    19    26    27    1
    20    27    28    1
    21    28    29   ar
    22    29    30   ar
    23    30    31   ar
    24    31    32    1
    25    31    33   ar
    26     4     5    1
    27     5     6    1
    28    12    13   ar
    29    13    14   ar
    30    14    15   ar
    31    15    16   ar
    32    16    17   ar
    33    17     8   ar
    34    16    11   ar
    35     6     1    1
    36    25    20   ar
    37    33    28   ar
    38    33    24    1
@<TRIPOS>MOLECULE
*****
 33 38 0 0 0
SMALL
GASTEIGER

@<TRIPOS>ATOM
      1 N          63.3228   84.8460   14.3766 N.pl3   1  UNL1       -0.3046
      2 C          64.3243   85.9611   14.3161 C.3     1  UNL1        0.1081
      3 C          64.2638   87.0786   15.3150 C.3     1  UNL1        0.0938
      4 N          63.2018   87.0809   16.3743 N.3     1  UNL1       -0.2695
      5 C          62.2002   85.9658   16.4347 C.3     1  UNL1        0.0938
      6 C          62.2608   84.8484   15.4359 C.3     1  UNL1        0.1081
      7 C          62.6940   84.8899    7.5317 C.3     1  UNL1        0.0521
      8 C          62.8663   84.5996    8.9932 C.ar    1  UNL1        0.0593
      9 C          62.8058   85.7170    9.9920 C.ar    1  UNL1        0.0148
     10 C          62.9781   85.4267   11.4536 C.ar    1  UNL1        0.0039
     11 C          63.2110   84.0190   11.9162 C.ar    1  UNL1        0.0310
     12 C          63.3833   83.7287   13.3777 C.ar    1  UNL1        0.0493
     13 C          63.6162   82.3209   13.8404 C.ar    1  UNL1        0.0146
     14 C          63.6767   81.2035   12.8415 C.ar    1  UNL1        0.0028
     15 C          63.5044   81.4938   11.3800 C.ar    1  UNL1        0.0192
     16 C          63.2715   82.9015   10.9174 C.ar    1  UNL1        0.0821
     17 N          63.0992   83.1918    9.4558 N.ar    1  UNL1       -0.2496
     18 C          63.1412   88.1983   17.3732 C.3     1  UNL1        0.0770
     19 C          62.9755   89.6139   16.9058 C.3     1  UNL1        0.0468
     20 C          63.1709   89.9534   15.4578 C.ar    1  UNL1        0.0146
     21 C          62.3210   89.2951   14.4117 C.ar    1  UNL1       -0.0011
     22 C          62.5164   89.6346   12.9638 C.ar    1  UNL1        0.0014
     23 C          63.5618   90.6324   12.5619 C.ar    1  UNL1        0.0206
     24 C          64.4117   91.2908   13.6080 C.ar    1  UNL1        0.0998
     25 C          64.2163   90.9513   15.0559 C.ar    1  UNL1        0.1512
     26 O          65.0662   91.6096   16.1020 O.3     1  UNL1       -0.4661
     27 C          66.1115   92.6075   15.7001 C.3     1  UNL1        0.2707
     28 C          66.3070   92.9470   14.2521 C.ar    1  UNL1        0.1916
     29 N          67.2509   93.8847   13.5597 N.ar    1  UNL1       -0.1295
     30 N          66.9844   93.8060   12.0856 N.ar    1  UNL1       -0.1332
     31 C          65.8758   92.8195   11.8671 C.ar    1  UNL1        0.1474
     32 C          65.2888   92.4320   10.5422 C.3     1  UNL1        0.0742
     33 N          65.4571   92.2886   13.2061 N.ar    1  UNL1       -0.2748
@<TRIPOS>BOND
     1     7     8    1
     2     8     9   ar
     3     9    10   ar
     4    10    11   ar
     5    11    12   ar
     6    12     1    1
     7     1     2    1
     8     2     3    1
     9     3     4    1
    10     4    18    1
    11    18    19    1
    12    19    20    1
    13    20    21   ar
    14    21    22   ar
    15    22    23   ar
    16    23    24   ar
    17    24    25   ar
    18    25    26    1
    19    26    27    1
    20    27    28    1
    21    28    29   ar
    22    29    30   ar
    23    30    31   ar
    24    31    32    1
    25    31    33   ar
    26     4     5    1
    27     5     6    1
    28    12    13   ar
    29    13    14   ar
    30    14    15   ar
    31    15    16   ar
    32    16    17   ar
    33    17     8   ar
    34    16    11   ar
    35     6     1    1
    36    25    20   ar
    37    33    28   ar
    38    33    24    1
@<TRIPOS>MOLECULE
*****
 33 38 0 0 0
SMALL
GASTEIGER

@<TRIPOS>ATOM
      1 N          62.6453   85.7926   12.3926 N.pl3   1  UNL1       -0.3046
      2 C          61.9340   85.9321   11.0794 C.3     1  UNL1        0.1081
      3 C          61.9300   87.2511   10.3650 C.3     1  UNL1        0.0938
      4 N          62.6372   88.4306   10.9640 N.3     1  UNL1       -0.2695
      5 C          63.3485   88.2910   12.2773 C.3     1  UNL1        0.0938
      6 C          63.3525   86.9720   12.9915 C.3     1  UNL1        0.1081
      7 C          63.1372   79.3729    9.9853 C.3     1  UNL1        0.0521
      8 C          63.0152   80.6481   10.7657 C.ar    1  UNL1        0.0593
      9 C          63.0112   81.9670   10.0514 C.ar    1  UNL1        0.0148
     10 C          62.8892   83.2422   10.8318 C.ar    1  UNL1        0.0039
     11 C          62.7713   83.1984   12.3265 C.ar    1  UNL1        0.0310
     12 C          62.6493   84.4736   13.1069 C.ar    1  UNL1        0.0493
     13 C          62.5313   84.4298   14.6016 C.ar    1  UNL1        0.0146
     14 C          62.5353   83.1108   15.3159 C.ar    1  UNL1        0.0028
     15 C          62.6573   81.8356   14.5355 C.ar    1  UNL1        0.0192
     16 C          62.7753   81.8794   13.0408 C.ar    1  UNL1        0.0821
     17 N          62.8972   80.6042   12.2604 N.ar    1  UNL1       -0.2496
     18 C          62.6332   89.7496   10.2497 C.3     1  UNL1        0.0770
     19 C          62.6711   91.0275   11.0342 C.3     1  UNL1        0.0468
     20 C          63.9877   91.6115   11.4532 C.ar    1  UNL1        0.0146
     21 C          64.9661   92.0765   10.4156 C.ar    1  UNL1       -0.0011
     22 C          66.2826   92.6605   10.8346 C.ar    1  UNL1        0.0014
     23 C          66.6208   92.7796   12.2911 C.ar    1  UNL1        0.0206
     24 C          65.6424   92.3147   13.3287 C.ar    1  UNL1        0.0998
     25 C          64.3259   91.7307   12.9097 C.ar    1  UNL1        0.1512
     26 O          63.3474   91.2657   13.9473 O.3     1  UNL1       -0.4661
     27 C          63.6855   91.3848   15.4038 C.3     1  UNL1        0.2707
     28 C          65.0022   91.9689   15.8228 C.ar    1  UNL1        0.1916
     29 N          65.6083   92.2113   17.1732 N.ar    1  UNL1       -0.1295
     30 N          66.9615   92.8261   16.9703 N.ar    1  UNL1       -0.1332
     31 C          67.1915   92.9636   15.4944 C.ar    1  UNL1        0.1474
     32 C          68.4172   93.5312   14.8422 C.3     1  UNL1        0.0742
     33 N          65.9805   92.4338   14.7852 N.ar    1  UNL1       -0.2748
@<TRIPOS>BOND
     1     7     8    1
     2     8     9   ar
     3     9    10   ar
     4    10    11   ar
     5    11    12   ar
     6    12     1    1
     7     1     2    1
     8     2     3    1
     9     3     4    1
    10     4    18    1
    11    18    19    1
    12    19    20    1
    13    20    21   ar
    14    21    22   ar
    15    22    23   ar
    16    23    24   ar
    17    24    25   ar
    18    25    26    1
    19    26    27    1
    20    27    28    1
    21    28    29   ar
    22    29    30   ar
    23    30    31   ar
    24    31    32    1
    25    31    33   ar
    26     4     5    1
    27     5     6    1
    28    12    13   ar
    29    13    14   ar
    30    14    15   ar
    31    15    16   ar
    32    16    17   ar
    33    17     8   ar
    34    16    11   ar
    35     6     1    1
    36    25    20   ar
    37    33    28   ar
    38    33    24    1
