@<TRIPOS>MOLECULE
*****
 28 30 0 0 0
SMALL
GASTEIGER

@<TRIPOS>ATOM
      1 C          65.2745   92.3319   12.6532 C.ar    1  UNL1       -0.0004
      2 C          65.1384   91.3180   13.7502 C.ar    1  UNL1       -0.0024
      3 C          64.1978   90.1607   13.5893 C.ar    1  UNL1       -0.0002
      4 C          63.3932   90.0174   12.3315 C.ar    1  UNL1        0.0030
      5 C          62.4525   88.8601   12.1706 C.ar    1  UNL1        0.0369
      6 C          61.6480   88.7168   10.9128 C.ar    1  UNL1        0.1386
      7 C          61.7841   89.7308    9.8158 C.ar    1  UNL1        0.0369
      8 C          62.7248   90.8881    9.9767 C.ar    1  UNL1        0.0031
      9 C          63.5293   91.0314   11.2345 C.ar    1  UNL1       -0.0001
     10 C          64.4700   92.1886   11.3954 C.ar    1  UNL1       -0.0024
     11 C          66.2152   93.4892   12.8141 C.3     1  UNL1        0.1254
     12 N          66.5356   94.3642   11.6386 N.ar    1  UNL1       -0.3044
     13 C          66.1803   95.8145   11.4962 C.ar    1  UNL1        0.0983
     14 C          66.6927   96.2892   10.1688 C.ar    1  UNL1        0.1193
     15 N          67.3647   95.1322    9.4907 N.ar    1  UNL1       -0.2223
     16 C          67.2676   93.9425   10.3991 C.ar    1  UNL1        0.1788
     17 C          66.8355   93.7715   14.1503 C.3     1  UNL1        0.0996
     18 C          68.8096   93.4774   15.8135 C.3     1  UNL1        0.0897
     19 N          68.1113   93.0881   14.5444 N.3     1  UNL1       -0.2684
     20 C          68.6888   92.0154   13.6693 C.3     1  UNL1        0.0897
     21 O          60.7073   87.5596   10.7519 O.3     1  UNL1       -0.4751
     22 C          61.1654   86.1694   11.0801 C.3     1  UNL1        0.2103
     23 C          62.1186   85.4584   10.1658 C.3     1  UNL1        0.0724
     24 C          61.4201   86.0501    8.9775 C.3     1  UNL1        0.0093
     25 C          62.8171   84.8668   11.3541 C.3     1  UNL1        0.0093
     26 C          63.0718   84.7474    9.2516 C.2     1  UNL1        0.0532
     27 O          63.1557   85.1371    7.8054 O.co2   1  UNL1       -0.5491
     28 O          63.9411   83.6468    9.7833 O.co2   1  UNL1       -0.5491
@<TRIPOS>UNITY_ATOM_ATTR
27 1
charge -1
@<TRIPOS>BOND
     1    18    19    1
     2    19    20    1
     3    19    17    1
     4    11    17    1
     5    11     1    1
     6     1     2   ar
     7     2     3   ar
     8     3     4   ar
     9     4     5   ar
    10     5     6   ar
    11     6    21    1
    12    21    22    1
    13    22    23    1
    14    23    24    1
    15    23    25    1
    16    23    26    1
    17    26    27   ar
    18    26    28   ar
    19     6     7   ar
    20     7     8   ar
    21     8     9   ar
    22     9    10   ar
    23    11    12    1
    24    12    13   ar
    25    13    14   ar
    26    14    15   ar
    27    15    16   ar
    28    10     1   ar
    29    16    12   ar
    30     9     4   ar
@<TRIPOS>MOLECULE
*****
 28 30 0 0 0
SMALL
GASTEIGER

@<TRIPOS>ATOM
      1 C          63.2981   85.6273   12.9668 C.ar    1  UNL1       -0.0004
      2 C          64.0110   85.5912   14.2860 C.ar    1  UNL1       -0.0024
      3 C          64.4710   86.8679   14.9251 C.ar    1  UNL1       -0.0002
      4 C          64.2180   88.1807   14.2450 C.ar    1  UNL1        0.0030
      5 C          64.6780   89.4574   14.8841 C.ar    1  UNL1        0.0369
      6 C          64.4251   90.7702   14.2040 C.ar    1  UNL1        0.1386
      7 C          63.7122   90.8063   12.8847 C.ar    1  UNL1        0.0369
      8 C          63.2522   89.5296   12.2456 C.ar    1  UNL1        0.0031
      9 C          63.5051   88.2168   12.9258 C.ar    1  UNL1       -0.0001
     10 C          63.0452   86.9401   12.2867 C.ar    1  UNL1       -0.0024
     11 C          62.8381   84.3506   12.3276 C.3     1  UNL1        0.1254
     12 N          62.9303   83.0580   13.0831 N.ar    1  UNL1       -0.3044
     13 C          64.0026   82.0207   12.9280 C.ar    1  UNL1        0.0983
     14 C          63.7014   80.8974   13.8754 C.ar    1  UNL1        0.1193
     15 N          62.4429   81.2405   14.6160 N.ar    1  UNL1       -0.2223
     16 C          61.9663   82.5758   14.1263 C.ar    1  UNL1        0.1788
     17 C          62.2859   84.3665   10.9331 C.3     1  UNL1        0.0996
     18 C          63.0368   85.2424    8.6052 C.3     1  UNL1        0.0897
     19 N          63.2153   84.2990    9.7576 N.3     1  UNL1       -0.2684
     20 C          64.3233   83.2881    9.7346 C.3     1  UNL1        0.0897
     21 O          64.8851   92.0469   14.8431 O.3     1  UNL1       -0.4751
     22 C          65.9644   92.8632   14.1960 C.3     1  UNL1        0.2103
     23 C          67.3989   92.6474   14.5778 C.3     1  UNL1        0.0724
     24 C          67.0843   93.0512   15.9877 C.3     1  UNL1        0.0093
     25 C          67.7134   92.2436   13.1679 C.3     1  UNL1        0.0093
     26 C          68.8333   92.4316   14.9596 C.2     1  UNL1        0.0532
     27 O          69.2232   92.3706   16.4068 O.co2   1  UNL1       -0.5491
     28 O          69.8778   92.2767   13.8943 O.co2   1  UNL1       -0.5491
@<TRIPOS>UNITY_ATOM_ATTR
27 1
charge -1
@<TRIPOS>BOND
     1    18    19    1
     2    19    20    1
     3    19    17    1
     4    11    17    1
     5    11     1    1
     6     1     2   ar
     7     2     3   ar
     8     3     4   ar
     9     4     5   ar
    10     5     6   ar
    11     6    21    1
    12    21    22    1
    13    22    23    1
    14    23    24    1
    15    23    25    1
    16    23    26    1
    17    26    27   ar
    18    26    28   ar
    19     6     7   ar
    20     7     8   ar
    21     8     9   ar
    22     9    10   ar
    23    11    12    1
    24    12    13   ar
    25    13    14   ar
    26    14    15   ar
    27    15    16   ar
    28    10     1   ar
    29    16    12   ar
    30     9     4   ar
@<TRIPOS>MOLECULE
*****
 28 30 0 0 0
SMALL
GASTEIGER

@<TRIPOS>ATOM
      1 C          62.2338   87.6367   11.0091 C.ar    1  UNL1       -0.0004
      2 C          62.1434   88.8839   10.1807 C.ar    1  UNL1       -0.0024
      3 C          62.7573   90.1595   10.6765 C.ar    1  UNL1       -0.0002
      4 C          63.4616   90.1879   12.0006 C.ar    1  UNL1        0.0030
      5 C          64.0756   91.4637   12.4963 C.ar    1  UNL1        0.0369
      6 C          64.7798   91.4920   13.8204 C.ar    1  UNL1        0.1386
      7 C          64.8702   90.2447   14.6487 C.ar    1  UNL1        0.0369
      8 C          64.2563   88.9690   14.1530 C.ar    1  UNL1        0.0031
      9 C          63.5520   88.9407   12.8289 C.ar    1  UNL1       -0.0001
     10 C          62.9381   87.6650   12.3331 C.ar    1  UNL1       -0.0024
     11 C          61.6199   86.3609   10.5133 C.3     1  UNL1        0.1254
     12 N          60.7885   86.3644    9.2648 N.ar    1  UNL1       -0.3044
     13 C          59.4878   87.0866    9.0736 C.ar    1  UNL1        0.0983
     14 C          59.0073   86.8147    7.6789 C.ar    1  UNL1        0.1193
     15 N          60.0110   85.9245    7.0081 N.ar    1  UNL1       -0.2223
     16 C          61.1119   85.6462    7.9882 C.ar    1  UNL1        0.1788
     17 C          61.8373   85.0819   11.2661 C.3     1  UNL1        0.0996
     18 C          63.9272   84.0206   12.3868 C.3     1  UNL1        0.0897
     19 N          63.1458   84.3574   11.1515 N.3     1  UNL1       -0.2684
     20 C          63.6728   83.9697    9.8017 C.3     1  UNL1        0.0897
     21 O          65.3938   92.7677   14.3162 O.3     1  UNL1       -0.4751
     22 C          66.7185   93.2212   13.7781 C.3     1  UNL1        0.2103
     23 C          67.0246   93.0743   12.3171 C.3     1  UNL1        0.0724
     24 C          66.1966   94.2896   12.0215 C.3     1  UNL1        0.0093
     25 C          67.8526   91.8590   12.6127 C.3     1  UNL1        0.0093
     26 C          67.3307   92.9275   10.8560 C.2     1  UNL1        0.0532
     27 O          66.3635   93.4427    9.8316 O.co2   1  UNL1       -0.5491
     28 O          68.6039   92.2656   10.4193 O.co2   1  UNL1       -0.5491
@<TRIPOS>UNITY_ATOM_ATTR
27 1
charge -1
@<TRIPOS>BOND
     1    18    19    1
     2    19    20    1
     3    19    17    1
     4    11    17    1
     5    11     1    1
     6     1     2   ar
     7     2     3   ar
     8     3     4   ar
     9     4     5   ar
    10     5     6   ar
    11     6    21    1
    12    21    22    1
    13    22    23    1
    14    23    24    1
    15    23    25    1
    16    23    26    1
    17    26    27   ar
    18    26    28   ar
    19     6     7   ar
    20     7     8   ar
    21     8     9   ar
    22     9    10   ar
    23    11    12    1
    24    12    13   ar
    25    13    14   ar
    26    14    15   ar
    27    15    16   ar
    28    10     1   ar
    29    16    12   ar
    30     9     4   ar
@<TRIPOS>MOLECULE
*****
 28 30 0 0 0
SMALL
GASTEIGER

@<TRIPOS>ATOM
      1 C          62.2738   87.9166   10.9668 C.ar    1  UNL1       -0.0004
      2 C          62.1964   89.2116   10.2140 C.ar    1  UNL1       -0.0024
      3 C          62.8219   90.4496   10.7850 C.ar    1  UNL1       -0.0002
      4 C          63.5249   90.3925   12.1088 C.ar    1  UNL1        0.0030
      5 C          64.1505   91.6305   12.6799 C.ar    1  UNL1        0.0369
      6 C          64.8535   91.5734   14.0037 C.ar    1  UNL1        0.1386
      7 C          64.9309   90.2783   14.7565 C.ar    1  UNL1        0.0369
      8 C          64.3054   89.0403   14.1855 C.ar    1  UNL1        0.0031
      9 C          63.6024   89.0974   12.8617 C.ar    1  UNL1       -0.0001
     10 C          62.9768   87.8595   12.2906 C.ar    1  UNL1       -0.0024
     11 C          61.6483   86.6785   10.3958 C.3     1  UNL1        0.1254
     12 N          62.4106   85.3866   10.3915 N.ar    1  UNL1       -0.3044
     13 C          62.4959   84.4095   11.5264 C.ar    1  UNL1        0.0983
     14 C          63.3594   83.2640   11.0879 C.ar    1  UNL1        0.1193
     15 N          63.8078   83.5332    9.6820 N.ar    1  UNL1       -0.2223
     16 C          63.2213   84.8451    9.2516 C.ar    1  UNL1        0.1788
     17 C          60.2605   86.7324    9.8291 C.3     1  UNL1        0.0996
     18 C          60.3188   85.7942    7.4070 C.3     1  UNL1        0.0897
     19 N          60.0592   86.9269    8.3554 N.3     1  UNL1       -0.2684
     20 C          59.5982   88.2542    7.8302 C.3     1  UNL1        0.0897
     21 O          65.4790   92.8114   14.5747 O.3     1  UNL1       -0.4751
     22 C          66.6746   93.4239   13.9072 C.3     1  UNL1        0.2103
     23 C          66.9686   93.1188   12.4684 C.3     1  UNL1        0.0724
     24 C          67.7565   91.9124   12.8852 C.3     1  UNL1        0.0093
     25 C          66.1808   94.3252   12.0515 C.3     1  UNL1        0.0093
     26 C          67.2627   92.8136   11.0295 C.2     1  UNL1        0.0532
     27 O          68.5324   92.1072   10.6569 O.co2   1  UNL1       -0.5491
     28 O          66.2870   93.2149    9.9632 O.co2   1  UNL1       -0.5491
@<TRIPOS>UNITY_ATOM_ATTR
27 1
charge -1
@<TRIPOS>BOND
     1    18    19    1
     2    19    20    1
     3    19    17    1
     4    11    17    1
     5    11     1    1
     6     1     2   ar
     7     2     3   ar
     8     3     4   ar
     9     4     5   ar
    10     5     6   ar
    11     6    21    1
    12    21    22    1
    13    22    23    1
    14    23    24    1
    15    23    25    1
    16    23    26    1
    17    26    27   ar
    18    26    28   ar
    19     6     7   ar
    20     7     8   ar
    21     8     9   ar
    22     9    10   ar
    23    11    12    1
    24    12    13   ar
    25    13    14   ar
    26    14    15   ar
    27    15    16   ar
    28    10     1   ar
    29    16    12   ar
    30     9     4   ar
@<TRIPOS>MOLECULE
*****
 28 30 0 0 0
SMALL
GASTEIGER

@<TRIPOS>ATOM
      1 C          62.8122   84.8750   11.2750 C.ar    1  UNL1       -0.0004
      2 C          63.1099   84.5051    9.8522 C.ar    1  UNL1       -0.0024
      3 C          62.4186   85.2220    8.7305 C.ar    1  UNL1       -0.0002
      4 C          61.4296   86.3088    9.0317 C.ar    1  UNL1        0.0030
      5 C          60.7383   87.0256    7.9099 C.ar    1  UNL1        0.0369
      6 C          59.7493   88.1124    8.2111 C.ar    1  UNL1        0.1386
      7 C          59.4515   88.4823    9.6340 C.ar    1  UNL1        0.0369
      8 C          60.1428   87.7655   10.7557 C.ar    1  UNL1        0.0031
      9 C          61.1319   86.6787   10.4545 C.ar    1  UNL1       -0.0001
     10 C          61.8232   85.9618   11.5762 C.ar    1  UNL1       -0.0024
     11 C          63.5035   84.1581   12.3967 C.3     1  UNL1        0.1254
     12 N          63.4176   84.6940   13.7951 N.ar    1  UNL1       -0.3044
     13 C          64.3281   85.7188   14.4041 C.ar    1  UNL1        0.0983
     14 C          63.8793   85.9574   15.8154 C.ar    1  UNL1        0.1193
     15 N          62.6914   85.0801   16.0786 N.ar    1  UNL1       -0.2223
     16 C          62.4060   84.2993   14.8300 C.ar    1  UNL1        0.1788
     17 C          64.2807   82.9054   12.1201 C.3     1  UNL1        0.0996
     18 C          63.2836   80.8965   13.4318 C.3     1  UNL1        0.0897
     19 N          63.5873   81.5752   12.1291 N.3     1  UNL1       -0.2684
     20 C          63.1978   80.9238   10.8353 C.3     1  UNL1        0.0897
     21 O          59.0580   88.8293    7.0895 O.3     1  UNL1       -0.4751
     22 C          59.8474   89.6965    6.1541 C.3     1  UNL1        0.2103
     23 C          59.1674   90.8019    5.4022 C.3     1  UNL1        0.0724
     24 C          60.4932   91.2512    4.8635 C.3     1  UNL1        0.0093
     25 C          57.8415   90.3526    5.9408 C.3     1  UNL1        0.0093
     26 C          58.4873   91.9073    4.6502 C.2     1  UNL1        0.0532
     27 O          59.2657   92.7415    3.6763 O.co2   1  UNL1       -0.5491
     28 O          57.0288   92.1787    4.8720 O.co2   1  UNL1       -0.5491
@<TRIPOS>UNITY_ATOM_ATTR
27 1
charge -1
@<TRIPOS>BOND
     1    18    19    1
     2    19    20    1
     3    19    17    1
     4    11    17    1
     5    11     1    1
     6     1     2   ar
     7     2     3   ar
     8     3     4   ar
     9     4     5   ar
    10     5     6   ar
    11     6    21    1
    12    21    22    1
    13    22    23    1
    14    23    24    1
    15    23    25    1
    16    23    26    1
    17    26    27   ar
    18    26    28   ar
    19     6     7   ar
    20     7     8   ar
    21     8     9   ar
    22     9    10   ar
    23    11    12    1
    24    12    13   ar
    25    13    14   ar
    26    14    15   ar
    27    15    16   ar
    28    10     1   ar
    29    16    12   ar
    30     9     4   ar
@<TRIPOS>MOLECULE
*****
 28 30 0 0 0
SMALL
GASTEIGER

@<TRIPOS>ATOM
      1 C          62.8360   84.8682   11.7086 C.ar    1  UNL1       -0.0004
      2 C          63.1834   84.3609   10.3404 C.ar    1  UNL1       -0.0024
      3 C          62.5606   84.9870    9.1279 C.ar    1  UNL1       -0.0002
      4 C          61.5905   86.1204    9.2837 C.ar    1  UNL1        0.0030
      5 C          60.9677   86.7466    8.0711 C.ar    1  UNL1        0.0369
      6 C          59.9976   87.8800    8.2269 C.ar    1  UNL1        0.1386
      7 C          59.6503   88.3873    9.5951 C.ar    1  UNL1        0.0369
      8 C          60.2730   87.7611   10.8076 C.ar    1  UNL1        0.0031
      9 C          61.2431   86.6277   10.6519 C.ar    1  UNL1       -0.0001
     10 C          61.8659   86.0016   11.8643 C.ar    1  UNL1       -0.0024
     11 C          63.4588   84.2420   12.9211 C.3     1  UNL1        0.1254
     12 N          63.0491   82.8634   13.3474 N.ar    1  UNL1       -0.3044
     13 C          63.5645   81.5749   12.7781 C.ar    1  UNL1        0.0983
     14 C          62.8861   80.4464   13.4967 C.ar    1  UNL1        0.1193
     15 N          61.9514   81.0375   14.5101 N.ar    1  UNL1       -0.2223
     16 C          62.0522   82.5313   14.4179 C.ar    1  UNL1        0.1788
     17 C          64.4911   84.9944   13.7073 C.3     1  UNL1        0.0996
     18 C          64.2593   87.4490   14.5268 C.3     1  UNL1        0.0897
     19 N          64.0649   85.9793   14.7554 N.3     1  UNL1       -0.2684
     20 C          63.4442   85.4945   16.0320 C.3     1  UNL1        0.0897
     21 O          59.3749   88.5061    7.0144 O.3     1  UNL1       -0.4751
     22 C          59.9636   89.7557    6.4294 C.3     1  UNL1        0.2103
     23 C          59.1110   90.6694    5.5998 C.3     1  UNL1        0.0724
     24 C          57.8782   90.0846    6.2228 C.3     1  UNL1        0.0093
     25 C          60.3438   91.2541    4.9768 C.3     1  UNL1        0.0093
     26 C          58.2584   91.5831    4.7703 C.2     1  UNL1        0.0532
     27 O          58.8876   92.4420    3.7136 O.co2   1  UNL1       -0.5491
     28 O          56.7767   91.6379    4.9974 O.co2   1  UNL1       -0.5491
@<TRIPOS>UNITY_ATOM_ATTR
27 1
charge -1
@<TRIPOS>BOND
     1    18    19    1
     2    19    20    1
     3    19    17    1
     4    11    17    1
     5    11     1    1
     6     1     2   ar
     7     2     3   ar
     8     3     4   ar
     9     4     5   ar
    10     5     6   ar
    11     6    21    1
    12    21    22    1
    13    22    23    1
    14    23    24    1
    15    23    25    1
    16    23    26    1
    17    26    27   ar
    18    26    28   ar
    19     6     7   ar
    20     7     8   ar
    21     8     9   ar
    22     9    10   ar
    23    11    12    1
    24    12    13   ar
    25    13    14   ar
    26    14    15   ar
    27    15    16   ar
    28    10     1   ar
    29    16    12   ar
    30     9     4   ar
@<TRIPOS>MOLECULE
*****
 28 30 0 0 0
SMALL
GASTEIGER

@<TRIPOS>ATOM
      1 C          63.1466   86.1659   12.5421 C.ar    1  UNL1       -0.0004
      2 C          63.8483   85.9819   13.8550 C.ar    1  UNL1       -0.0024
      3 C          64.3705   87.1746   14.5998 C.ar    1  UNL1       -0.0002
      4 C          64.1911   88.5512   14.0317 C.ar    1  UNL1        0.0030
      5 C          64.7135   89.7439   14.7766 C.ar    1  UNL1        0.0369
      6 C          64.5340   91.1205   14.2085 C.ar    1  UNL1        0.1386
      7 C          63.8323   91.3044   12.8956 C.ar    1  UNL1        0.0369
      8 C          63.3100   90.1118   12.1508 C.ar    1  UNL1        0.0031
      9 C          63.4894   88.7352   12.7189 C.ar    1  UNL1       -0.0001
     10 C          62.9672   87.5425   11.9741 C.ar    1  UNL1       -0.0024
     11 C          62.6243   84.9732   11.7973 C.3     1  UNL1        0.1254
     12 N          63.1612   83.6057   12.1000 N.ar    1  UNL1       -0.3044
     13 C          62.5207   82.5848   12.9930 C.ar    1  UNL1        0.0983
     14 C          63.3966   81.3672   13.0078 C.ar    1  UNL1        0.1193
     15 N          64.5784   81.6356   12.1240 N.ar    1  UNL1       -0.2223
     16 C          64.4330   83.0191   11.5630 C.ar    1  UNL1        0.1788
     17 C          61.5650   85.1481   10.7497 C.3     1  UNL1        0.0996
     18 C          61.1256   86.9152    8.8965 C.3     1  UNL1        0.0897
     19 N          61.9153   85.7535    9.4227 N.3     1  UNL1       -0.2684
     20 C          63.0552   85.1973    8.6220 C.3     1  UNL1        0.0897
     21 O          65.0563   92.3131   14.9534 O.3     1  UNL1       -0.4751
     22 C          66.1651   93.1365   14.3679 C.3     1  UNL1        0.2103
     23 C          67.5941   92.7862   14.6598 C.3     1  UNL1        0.0724
     24 C          67.7010   92.1102   13.3250 C.3     1  UNL1        0.0093
     25 C          67.4871   93.4621   15.9945 C.3     1  UNL1        0.0093
     26 C          69.0230   92.4358   14.9517 C.2     1  UNL1        0.0532
     27 O          69.9917   92.2358   13.8239 O.co2   1  UNL1       -0.5491
     28 O          69.4834   92.2853   16.3713 O.co2   1  UNL1       -0.5491
@<TRIPOS>UNITY_ATOM_ATTR
27 1
charge -1
@<TRIPOS>BOND
     1    18    19    1
     2    19    20    1
     3    19    17    1
     4    11    17    1
     5    11     1    1
     6     1     2   ar
     7     2     3   ar
     8     3     4   ar
     9     4     5   ar
    10     5     6   ar
    11     6    21    1
    12    21    22    1
    13    22    23    1
    14    23    24    1
    15    23    25    1
    16    23    26    1
    17    26    27   ar
    18    26    28   ar
    19     6     7   ar
    20     7     8   ar
    21     8     9   ar
    22     9    10   ar
    23    11    12    1
    24    12    13   ar
    25    13    14   ar
    26    14    15   ar
    27    15    16   ar
    28    10     1   ar
    29    16    12   ar
    30     9     4   ar
@<TRIPOS>MOLECULE
*****
 28 30 0 0 0
SMALL
GASTEIGER

@<TRIPOS>ATOM
      1 C          62.2299   87.5250   10.9207 C.ar    1  UNL1       -0.0004
      2 C          62.1035   88.8103   10.1579 C.ar    1  UNL1       -0.0024
      3 C          62.6747   90.0769   10.7229 C.ar    1  UNL1       -0.0002
      4 C          63.3722   90.0583   12.0507 C.ar    1  UNL1        0.0030
      5 C          63.9434   91.3250   12.6157 C.ar    1  UNL1        0.0369
      6 C          64.6410   91.3064   13.9435 C.ar    1  UNL1        0.1386
      7 C          64.7673   90.0210   14.7064 C.ar    1  UNL1        0.0369
      8 C          64.1961   88.7543   14.1414 C.ar    1  UNL1        0.0031
      9 C          63.4986   88.7730   12.8135 C.ar    1  UNL1       -0.0001
     10 C          62.9274   87.5063   12.2485 C.ar    1  UNL1       -0.0024
     11 C          61.6587   86.2582   10.3557 C.3     1  UNL1        0.1254
     12 N          60.7759   86.3086    9.1441 N.ar    1  UNL1       -0.3044
     13 C          59.4473   86.9985    9.0492 C.ar    1  UNL1        0.0983
     14 C          58.9170   86.7943    7.6610 C.ar    1  UNL1        0.1193
     15 N          59.9177   85.9781    6.8979 N.ar    1  UNL1       -0.2223
     16 C          61.0666   85.6779    7.8145 C.ar    1  UNL1        0.1788
     17 C          61.9703   84.9412   11.0024 C.3     1  UNL1        0.0996
     18 C          63.7000   84.2644    9.1857 C.3     1  UNL1        0.0897
     19 N          63.1954   84.1771   10.5955 N.3     1  UNL1       -0.2684
     20 C          63.9157   83.3256   11.5986 C.3     1  UNL1        0.0897
     21 O          65.2121   92.5730   14.5085 O.3     1  UNL1       -0.4751
     22 C          66.1902   92.5136   15.6443 C.3     1  UNL1        0.2103
     23 C          67.6364   92.8326   15.4061 C.3     1  UNL1        0.0724
     24 C          67.2733   93.5217   14.1243 C.3     1  UNL1        0.0093
     25 C          67.9995   92.1436   16.6880 C.3     1  UNL1        0.0093
     26 C          69.0826   93.1517   15.1680 C.2     1  UNL1        0.0532
     27 O          69.8026   92.5432   14.0012 O.co2   1  UNL1       -0.5491
     28 O          69.8088   94.0792   16.0966 O.co2   1  UNL1       -0.5491
@<TRIPOS>UNITY_ATOM_ATTR
27 1
charge -1
@<TRIPOS>BOND
     1    18    19    1
     2    19    20    1
     3    19    17    1
     4    11    17    1
     5    11     1    1
     6     1     2   ar
     7     2     3   ar
     8     3     4   ar
     9     4     5   ar
    10     5     6   ar
    11     6    21    1
    12    21    22    1
    13    22    23    1
    14    23    24    1
    15    23    25    1
    16    23    26    1
    17    26    27   ar
    18    26    28   ar
    19     6     7   ar
    20     7     8   ar
    21     8     9   ar
    22     9    10   ar
    23    11    12    1
    24    12    13   ar
    25    13    14   ar
    26    14    15   ar
    27    15    16   ar
    28    10     1   ar
    29    16    12   ar
    30     9     4   ar
@<TRIPOS>MOLECULE
*****
 28 30 0 0 0
SMALL
GASTEIGER

@<TRIPOS>ATOM
      1 C          61.8878   87.5160   10.4720 C.ar    1  UNL1       -0.0004
      2 C          62.3247   86.5526   11.5354 C.ar    1  UNL1       -0.0024
      3 C          63.1354   87.0384   12.7002 C.ar    1  UNL1       -0.0002
      4 C          63.5091   88.4876   12.8016 C.ar    1  UNL1        0.0030
      5 C          64.3199   88.9733   13.9664 C.ar    1  UNL1        0.0369
      6 C          64.6936   90.4225   14.0678 C.ar    1  UNL1        0.1386
      7 C          64.2566   91.3859   13.0043 C.ar    1  UNL1        0.0369
      8 C          63.4459   90.9001   11.8395 C.ar    1  UNL1        0.0031
      9 C          63.0722   89.4509   11.7381 C.ar    1  UNL1       -0.0001
     10 C          62.2615   88.9651   10.5733 C.ar    1  UNL1       -0.0024
     11 C          61.0771   87.0302    9.3071 C.3     1  UNL1        0.1254
     12 N          61.6605   86.0319    8.3516 N.ar    1  UNL1       -0.3044
     13 C          63.0307   85.4274    8.4357 C.ar    1  UNL1        0.0983
     14 C          63.1932   84.4847    7.2803 C.ar    1  UNL1        0.1193
     15 N          61.9234   84.5065    6.4822 N.ar    1  UNL1       -0.2223
     16 C          60.9762   85.4627    7.1443 C.ar    1  UNL1        0.1788
     17 C          59.6830   87.5428    9.0978 C.3     1  UNL1        0.0996
     18 C          59.7883   90.1296    8.8798 C.3     1  UNL1        0.0897
     19 N          59.4548   88.7892    8.2950 N.3     1  UNL1       -0.2684
     20 C          58.8931   88.6951    6.9073 C.3     1  UNL1        0.0897
     21 O          65.5043   90.9083   15.2326 O.3     1  UNL1       -0.4751
     22 C          65.8052   92.3705   15.3792 C.3     1  UNL1        0.2103
     23 C          67.2230   92.8551   15.3088 C.3     1  UNL1        0.0724
     24 C          66.8759   93.6973   14.1170 C.3     1  UNL1        0.0093
     25 C          67.5700   92.0130   16.5005 C.3     1  UNL1        0.0093
     26 C          68.6407   93.3398   15.2384 C.2     1  UNL1        0.0532
     27 O          69.6133   92.6807   14.3057 O.co2   1  UNL1       -0.5491
     28 O          69.0861   94.4835   16.1006 O.co2   1  UNL1       -0.5491
@<TRIPOS>UNITY_ATOM_ATTR
27 1
charge -1
@<TRIPOS>BOND
     1    18    19    1
     2    19    20    1
     3    19    17    1
     4    11    17    1
     5    11     1    1
     6     1     2   ar
     7     2     3   ar
     8     3     4   ar
     9     4     5   ar
    10     5     6   ar
    11     6    21    1
    12    21    22    1
    13    22    23    1
    14    23    24    1
    15    23    25    1
    16    23    26    1
    17    26    27   ar
    18    26    28   ar
    19     6     7   ar
    20     7     8   ar
    21     8     9   ar
    22     9    10   ar
    23    11    12    1
    24    12    13   ar
    25    13    14   ar
    26    14    15   ar
    27    15    16   ar
    28    10     1   ar
    29    16    12   ar
    30     9     4   ar
