@<TRIPOS>MOLECULE
*****
 37 41 0 0 0
SMALL
GASTEIGER

@<TRIPOS>ATOM
      1 C          60.1336   92.4210    3.4959 C.ar    1  UNL1        0.0516
      2 C          61.5796   92.0902    3.2735 C.ar    1  UNL1        0.0147
      3 C          62.2404   92.4503    1.9759 C.ar    1  UNL1        0.0013
      4 C          61.4551   93.1410    0.9007 C.ar    1  UNL1        0.0007
      5 C          60.0090   93.4717    1.1231 C.ar    1  UNL1        0.0013
      6 C          59.3482   93.1117    2.4207 C.ar    1  UNL1        0.0147
      7 C          62.1158   93.5011   -0.3969 C.ar    1  UNL1        0.0096
      8 C          61.8023   92.9104   -1.7396 C.ar    1  UNL1        0.0355
      9 S          62.6988   93.5593   -2.7522 S.2     1  UNL1       -0.0863
     10 C          63.5664   94.5510   -2.0353 C.ar    1  UNL1        0.0337
     11 C          64.6378   95.4821   -2.5199 C.ar    1  UNL1        0.0268
     12 C          65.3491   96.3773   -1.5488 C.ar    1  UNL1        0.1008
     13 N          64.9887   96.3414   -0.0932 N.ar    1  UNL1       -0.2296
     14 C          63.9172   95.4102    0.3914 C.ar    1  UNL1        0.1258
     15 N          63.5569   95.3742    1.8470 N.pl3   1  UNL1       -0.3426
     16 C          63.2060   94.5150   -0.5796 C.ar    1  UNL1        0.0377
     17 H          64.0236   95.9617    2.4844 H       1  UNL1        0.1437
     18 H          62.8536   94.7630    2.1651 H       1  UNL1        0.1437
     19 C          64.9982   95.5181   -3.9755 C.ar    1  UNL1        0.0212
     20 C          64.9962   94.2522   -4.7802 C.ar    1  UNL1        0.0032
     21 C          65.3565   94.2881   -6.2358 C.ar    1  UNL1        0.0207
     22 C          65.7188   95.5901   -6.8868 C.ar    1  UNL1        0.0989
     23 N          65.7208   96.8560   -6.0821 N.ar    1  UNL1       -0.2423
     24 C          65.3604   96.8200   -4.6265 C.ar    1  UNL1        0.0989
     25 N          59.1987   90.4395    6.8049 N.am    1  UNL1       -0.2681
     26 C          59.8594   90.7995    5.5073 C.2     1  UNL1        0.3082
     27 O          60.9066   89.8982    4.9234 O.2     1  UNL1       -0.2522
     28 N          59.4728   92.0609    4.7936 N.am    1  UNL1       -0.2681
     29 H          58.5113   91.0311    7.1881 H       1  UNL1        0.1564
     30 H          58.7855   92.6525    5.1768 H       1  UNL1        0.1564
     31 C          61.8972   88.0233   10.5305 C.3     1  UNL1        0.0311
     32 C          60.9345   87.9699    9.3814 C.ar    1  UNL1       -0.0206
     33 C          60.3582   86.6552    8.9462 C.ar    1  UNL1       -0.0042
     34 C          59.3955   86.6019    7.7972 C.ar    1  UNL1        0.0010
     35 C          59.0090   87.8633    7.0834 C.ar    1  UNL1        0.0147
     36 C          59.5852   89.1780    7.5187 C.ar    1  UNL1        0.0513
     37 C          60.5480   89.2313    8.6677 C.ar    1  UNL1        0.0105
@<TRIPOS>BOND
     1    31    32    1
     2    32    33   ar
     3    33    34   ar
     4    34    35   ar
     5    35    36   ar
     6    36    25    1
     7    25    26   am
     8    26    27    2
     9    26    28   am
    10    28     1    1
    11     1     2   ar
    12     2     3   ar
    13     3     4   ar
    14     4     7    1
    15     7     8   ar
    16     8     9   ar
    17     9    10   ar
    18    10    11   ar
    19    11    19    1
    20    19    20   ar
    21    20    21   ar
    22    21    22   ar
    23    22    23   ar
    24    23    24   ar
    25    11    12   ar
    26    12    13   ar
    27    13    14   ar
    28    14    15    1
    29    14    16   ar
    30     4     5   ar
    31     5     6   ar
    32    36    37   ar
    33    37    32   ar
    34     6     1   ar
    35    16     7   ar
    36    16    10   ar
    37    24    19   ar
    38    25    29    1
    39    28    30    1
    40    15    17    1
    41    15    18    1
@<TRIPOS>MOLECULE
*****
 37 41 0 0 0
SMALL
GASTEIGER

@<TRIPOS>ATOM
      1 C          59.2543   89.7233    6.7998 C.ar    1  UNL1        0.0516
      2 C          60.1471   90.3161    7.8493 C.ar    1  UNL1        0.0147
      3 C          60.7347   89.4405    8.9162 C.ar    1  UNL1        0.0013
      4 C          60.4295   87.9720    8.9334 C.ar    1  UNL1        0.0007
      5 C          59.5367   87.3792    7.8839 C.ar    1  UNL1        0.0013
      6 C          58.9491   88.2548    6.8171 C.ar    1  UNL1        0.0147
      7 C          61.0171   87.0963   10.0002 C.ar    1  UNL1        0.0096
      8 C          60.8057   87.2443   11.4778 C.ar    1  UNL1        0.0355
      9 S          61.5772   86.1583   12.1674 S.2     1  UNL1       -0.0863
     10 C          62.2653   85.3392   11.1159 C.ar    1  UNL1        0.0337
     11 C          63.1624   84.1404   11.2051 C.ar    1  UNL1        0.0268
     12 C          63.7134   83.5212    9.9549 C.ar    1  UNL1        0.1008
     13 N          63.3673   84.1010    8.6154 N.ar    1  UNL1       -0.2296
     14 C          62.4701   85.2999    8.5263 C.ar    1  UNL1        0.1258
     15 N          62.1239   85.8796    7.1868 N.pl3   1  UNL1       -0.3426
     16 C          61.9192   85.9189    9.7765 C.ar    1  UNL1        0.0377
     17 H          62.4856   85.4732    6.3662 H       1  UNL1        0.1437
     18 H          61.5351   86.6664    7.1283 H       1  UNL1        0.1437
     19 C          63.5086   83.5607   12.5446 C.ar    1  UNL1        0.0212
     20 C          64.2250   84.3985   13.5620 C.ar    1  UNL1        0.0032
     21 C          64.5711   83.8187   14.9014 C.ar    1  UNL1        0.0207
     22 C          64.2009   82.4012   15.2234 C.ar    1  UNL1        0.0989
     23 N          63.4846   81.5635   14.2061 N.ar    1  UNL1       -0.2423
     24 C          63.1384   82.1432   12.8667 C.ar    1  UNL1        0.0989
     25 N          58.9700   92.0983    3.6331 N.am    1  UNL1       -0.2681
     26 C          59.5576   91.2226    4.6999 C.2     1  UNL1        0.3082
     27 O          61.0359   90.9706    4.7334 O.2     1  UNL1       -0.2522
     28 N          58.6668   90.5990    5.7331 N.am    1  UNL1       -0.2681
     29 H          57.9998   92.2637    3.6111 H       1  UNL1        0.1564
     30 H          57.6965   90.7644    5.7111 H       1  UNL1        0.1564
     31 C          63.7142   93.4741    2.0206 C.3     1  UNL1        0.0311
     32 C          62.2328   93.4099    1.7935 C.ar    1  UNL1       -0.0206
     33 C          61.6423   93.9692    0.5333 C.ar    1  UNL1       -0.0042
     34 C          60.1609   93.9050    0.3062 C.ar    1  UNL1        0.0010
     35 C          59.2702   93.2814    1.3395 C.ar    1  UNL1        0.0147
     36 C          59.8608   92.7220    2.5998 C.ar    1  UNL1        0.0513
     37 C          61.3422   92.7862    2.8268 C.ar    1  UNL1        0.0105
@<TRIPOS>BOND
     1    31    32    1
     2    32    33   ar
     3    33    34   ar
     4    34    35   ar
     5    35    36   ar
     6    36    25    1
     7    25    26   am
     8    26    27    2
     9    26    28   am
    10    28     1    1
    11     1     2   ar
    12     2     3   ar
    13     3     4   ar
    14     4     7    1
    15     7     8   ar
    16     8     9   ar
    17     9    10   ar
    18    10    11   ar
    19    11    19    1
    20    19    20   ar
    21    20    21   ar
    22    21    22   ar
    23    22    23   ar
    24    23    24   ar
    25    11    12   ar
    26    12    13   ar
    27    13    14   ar
    28    14    15    1
    29    14    16   ar
    30     4     5   ar
    31     5     6   ar
    32    36    37   ar
    33    37    32   ar
    34     6     1   ar
    35    16     7   ar
    36    16    10   ar
    37    24    19   ar
    38    25    29    1
    39    28    30    1
    40    15    17    1
    41    15    18    1
@<TRIPOS>MOLECULE
*****
 37 41 0 0 0
SMALL
GASTEIGER

@<TRIPOS>ATOM
      1 C          60.2291   92.4300    3.6024 C.ar    1  UNL1        0.0516
      2 C          61.6108   91.8887    3.3836 C.ar    1  UNL1        0.0147
      3 C          62.4166   92.3442    2.2032 C.ar    1  UNL1        0.0013
      4 C          61.8406   93.3410    1.2416 C.ar    1  UNL1        0.0007
      5 C          60.4589   93.8823    1.4604 C.ar    1  UNL1        0.0013
      6 C          59.6531   93.4268    2.6408 C.ar    1  UNL1        0.0147
      7 C          62.6463   93.7966    0.0612 C.ar    1  UNL1        0.0096
      8 C          64.0648   94.2832    0.0968 C.ar    1  UNL1        0.0355
      9 S          64.4701   94.6328   -1.3044 S.2     1  UNL1       -0.0863
     10 C          63.3022   94.3623   -2.2060 C.ar    1  UNL1        0.0337
     11 C          63.1195   94.5198   -3.6864 C.ar    1  UNL1        0.0268
     12 C          61.8096   94.1604   -4.3229 C.ar    1  UNL1        0.1008
     13 N          60.6825   93.6436   -3.4789 N.ar    1  UNL1       -0.2296
     14 C          60.8652   93.4861   -1.9984 C.ar    1  UNL1        0.1258
     15 N          59.7380   92.9693   -1.1544 N.pl3   1  UNL1       -0.3426
     16 C          62.1751   93.8454   -1.3620 C.ar    1  UNL1        0.0377
     17 H          58.8783   92.7334   -1.5721 H       1  UNL1        0.1437
     18 H          59.8580   92.8659   -0.1827 H       1  UNL1        0.1437
     19 C          64.2467   95.0366   -4.5304 C.ar    1  UNL1        0.0212
     20 C          64.9069   96.3384   -4.1845 C.ar    1  UNL1        0.0032
     21 C          66.0340   96.8553   -5.0286 C.ar    1  UNL1        0.0207
     22 C          66.5011   96.0703   -6.2185 C.ar    1  UNL1        0.0989
     23 N          65.8409   94.7686   -6.5643 N.ar    1  UNL1       -0.2423
     24 C          64.7137   94.2517   -5.7203 C.ar    1  UNL1        0.0989
     25 N          59.0499   90.3150    6.7465 N.am    1  UNL1       -0.2681
     26 C          59.8556   90.7706    5.5662 C.2     1  UNL1        0.3082
     27 O          61.0935   90.0222    5.1693 O.2     1  UNL1       -0.2522
     28 N          59.4233   91.9744    4.7828 N.am    1  UNL1       -0.2681
     29 H          58.2374   90.8062    7.0070 H       1  UNL1        0.1564
     30 H          58.6108   92.4656    5.0433 H       1  UNL1        0.1564
     31 C          61.6282   88.2411   10.7529 C.3     1  UNL1        0.0311
     32 C          60.7712   88.0741    9.5332 C.ar    1  UNL1       -0.0206
     33 C          60.3465   86.7033    9.0970 C.ar    1  UNL1       -0.0042
     34 C          59.4895   86.5363    7.8773 C.ar    1  UNL1        0.0010
     35 C          59.0573   87.7402    7.0938 C.ar    1  UNL1        0.0147
     36 C          59.4821   89.1111    7.5301 C.ar    1  UNL1        0.0513
     37 C          60.3391   89.2781    8.7498 C.ar    1  UNL1        0.0105
@<TRIPOS>BOND
     1    31    32    1
     2    32    33   ar
     3    33    34   ar
     4    34    35   ar
     5    35    36   ar
     6    36    25    1
     7    25    26   am
     8    26    27    2
     9    26    28   am
    10    28     1    1
    11     1     2   ar
    12     2     3   ar
    13     3     4   ar
    14     4     7    1
    15     7     8   ar
    16     8     9   ar
    17     9    10   ar
    18    10    11   ar
    19    11    19    1
    20    19    20   ar
    21    20    21   ar
    22    21    22   ar
    23    22    23   ar
    24    23    24   ar
    25    11    12   ar
    26    12    13   ar
    27    13    14   ar
    28    14    15    1
    29    14    16   ar
    30     4     5   ar
    31     5     6   ar
    32    36    37   ar
    33    37    32   ar
    34     6     1   ar
    35    16     7   ar
    36    16    10   ar
    37    24    19   ar
    38    25    29    1
    39    28    30    1
    40    15    17    1
    41    15    18    1
@<TRIPOS>MOLECULE
*****
 37 41 0 0 0
SMALL
GASTEIGER

@<TRIPOS>ATOM
      1 C          64.7078   91.6777   13.2241 C.ar    1  UNL1        0.0516
      2 C          63.7754   90.9616   12.2926 C.ar    1  UNL1        0.0147
      3 C          63.5193   89.4942   12.4692 C.ar    1  UNL1        0.0013
      4 C          64.1956   88.7429   13.5775 C.ar    1  UNL1        0.0007
      5 C          65.1280   89.4591   14.5090 C.ar    1  UNL1        0.0013
      6 C          65.3841   90.9265   14.3324 C.ar    1  UNL1        0.0147
      7 C          63.9395   87.2755   13.7542 C.ar    1  UNL1        0.0096
      8 C          64.3031   86.4556   14.9565 C.ar    1  UNL1        0.0355
      9 S          63.8632   85.0438   14.7050 S.2     1  UNL1       -0.0863
     10 C          63.2278   84.9912   13.3472 C.ar    1  UNL1        0.0337
     11 C          62.6123   83.8655   12.5701 C.ar    1  UNL1        0.0268
     12 C          62.0439   84.1191   11.2052 C.ar    1  UNL1        0.1008
     13 N          62.0911   85.4985   10.6176 N.ar    1  UNL1       -0.2296
     14 C          62.7066   86.6241   11.3948 C.ar    1  UNL1        0.1258
     15 N          62.7538   88.0035   10.8072 N.pl3   1  UNL1       -0.3426
     16 C          63.2749   86.3705   12.7596 C.ar    1  UNL1        0.0377
     17 H          62.3808   88.1699    9.9115 H       1  UNL1        0.1437
     18 H          63.1578   88.7423   11.3173 H       1  UNL1        0.1437
     19 C          62.5651   82.4862   13.1577 C.ar    1  UNL1        0.0212
     20 C          61.2512   81.8908   13.5691 C.ar    1  UNL1        0.0032
     21 C          61.2040   80.5115   14.1567 C.ar    1  UNL1        0.0207
     22 C          62.4707   79.7276   14.3329 C.ar    1  UNL1        0.0989
     23 N          63.7846   80.3230   13.9215 N.ar    1  UNL1       -0.2423
     24 C          63.8317   81.7023   13.3339 C.ar    1  UNL1        0.0989
     25 N          65.7056   95.1354   11.5514 N.am    1  UNL1       -0.2681
     26 C          65.4496   93.6680   11.7281 C.2     1  UNL1        0.3082
     27 O          65.6792   92.7237   10.5856 O.2     1  UNL1       -0.2522
     28 N          64.9639   93.1451   13.0474 N.am    1  UNL1       -0.2681
     29 H          65.5549   95.7552   12.3013 H       1  UNL1        0.1564
     30 H          64.8131   93.7649   13.7973 H       1  UNL1        0.1564
     31 C          64.7101   96.8558    6.7504 C.3     1  UNL1        0.0311
     32 C          65.6936   96.5186    7.8316 C.ar    1  UNL1       -0.0206
     33 C          67.1629   96.7045    7.5935 C.ar    1  UNL1       -0.0042
     34 C          68.1465   96.3673    8.6747 C.ar    1  UNL1        0.0010
     35 C          67.6607   95.8443    9.9939 C.ar    1  UNL1        0.0147
     36 C          66.1914   95.6585   10.2320 C.ar    1  UNL1        0.0513
     37 C          65.2078   95.9957    9.1508 C.ar    1  UNL1        0.0105
@<TRIPOS>BOND
     1    31    32    1
     2    32    33   ar
     3    33    34   ar
     4    34    35   ar
     5    35    36   ar
     6    36    25    1
     7    25    26   am
     8    26    27    2
     9    26    28   am
    10    28     1    1
    11     1     2   ar
    12     2     3   ar
    13     3     4   ar
    14     4     7    1
    15     7     8   ar
    16     8     9   ar
    17     9    10   ar
    18    10    11   ar
    19    11    19    1
    20    19    20   ar
    21    20    21   ar
    22    21    22   ar
    23    22    23   ar
    24    23    24   ar
    25    11    12   ar
    26    12    13   ar
    27    13    14   ar
    28    14    15    1
    29    14    16   ar
    30     4     5   ar
    31     5     6   ar
    32    36    37   ar
    33    37    32   ar
    34     6     1   ar
    35    16     7   ar
    36    16    10   ar
    37    24    19   ar
    38    25    29    1
    39    28    30    1
    40    15    17    1
    41    15    18    1
@<TRIPOS>MOLECULE
*****
 37 41 0 0 0
SMALL
GASTEIGER

@<TRIPOS>ATOM
      1 C          59.3365   89.9602    6.5648 C.ar    1  UNL1        0.0516
      2 C          59.1827   88.4729    6.4458 C.ar    1  UNL1        0.0147
      3 C          59.7887   87.5710    7.4800 C.ar    1  UNL1        0.0013
      4 C          60.5486   88.1565    8.6331 C.ar    1  UNL1        0.0007
      5 C          60.7024   89.6439    8.7521 C.ar    1  UNL1        0.0013
      6 C          60.0964   90.5458    7.7179 C.ar    1  UNL1        0.0147
      7 C          61.1546   87.2547    9.6673 C.ar    1  UNL1        0.0096
      8 C          61.0277   85.7610    9.7179 C.ar    1  UNL1        0.0355
      9 S          61.7886   85.2715   10.9143 S.2     1  UNL1       -0.0863
     10 C          62.3857   86.4627   11.6031 C.ar    1  UNL1        0.0337
     11 C          63.2356   86.5896   12.8325 C.ar    1  UNL1        0.0268
     12 C          63.6937   87.9423   13.2913 C.ar    1  UNL1        0.1008
     13 N          63.3019   89.1681   12.5206 N.ar    1  UNL1       -0.2296
     14 C          62.4519   89.0411   11.2911 C.ar    1  UNL1        0.1258
     15 N          62.0601   90.2669   10.5204 N.pl3   1  UNL1       -0.3426
     16 C          61.9939   87.6884   10.8324 C.ar    1  UNL1        0.0377
     17 H          62.3607   91.1547   10.8215 H       1  UNL1        0.1437
     18 H          61.5022   90.1835    9.7135 H       1  UNL1        0.1437
     19 C          63.6275   85.3639   13.6033 C.ar    1  UNL1        0.0212
     20 C          64.0057   84.1086   12.8743 C.ar    1  UNL1        0.0032
     21 C          64.3976   82.8829   13.6450 C.ar    1  UNL1        0.0207
     22 C          64.4112   82.9124   15.1447 C.ar    1  UNL1        0.0989
     23 N          64.0330   84.1676   15.8736 N.ar    1  UNL1       -0.2423
     24 C          63.6412   85.3934   15.1029 C.ar    1  UNL1        0.0989
     25 N          58.9995   92.4280    3.4752 N.am    1  UNL1       -0.2681
     26 C          59.6055   91.5262    4.5093 C.2     1  UNL1        0.3082
     27 O          61.0865   91.2887    4.5222 O.2     1  UNL1       -0.2522
     28 N          58.7305   90.8620    5.5306 N.am    1  UNL1       -0.2681
     29 H          58.0275   92.5839    3.4667 H       1  UNL1        0.1564
     30 H          57.7585   91.0180    5.5222 H       1  UNL1        0.1564
     31 C          61.5444   96.6285    1.7782 C.3     1  UNL1        0.0311
     32 C          61.1470   95.1925    1.6053 C.ar    1  UNL1       -0.0206
     33 C          61.6245   94.4207    0.4110 C.ar    1  UNL1       -0.0042
     34 C          61.2271   92.9847    0.2381 C.ar    1  UNL1        0.0010
     35 C          60.3521   92.3205    1.2595 C.ar    1  UNL1        0.0147
     36 C          59.8746   93.0923    2.4538 C.ar    1  UNL1        0.0513
     37 C          60.2720   94.5283    2.6267 C.ar    1  UNL1        0.0105
@<TRIPOS>BOND
     1    31    32    1
     2    32    33   ar
     3    33    34   ar
     4    34    35   ar
     5    35    36   ar
     6    36    25    1
     7    25    26   am
     8    26    27    2
     9    26    28   am
    10    28     1    1
    11     1     2   ar
    12     2     3   ar
    13     3     4   ar
    14     4     7    1
    15     7     8   ar
    16     8     9   ar
    17     9    10   ar
    18    10    11   ar
    19    11    19    1
    20    19    20   ar
    21    20    21   ar
    22    21    22   ar
    23    22    23   ar
    24    23    24   ar
    25    11    12   ar
    26    12    13   ar
    27    13    14   ar
    28    14    15    1
    29    14    16   ar
    30     4     5   ar
    31     5     6   ar
    32    36    37   ar
    33    37    32   ar
    34     6     1   ar
    35    16     7   ar
    36    16    10   ar
    37    24    19   ar
    38    25    29    1
    39    28    30    1
    40    15    17    1
    41    15    18    1
@<TRIPOS>MOLECULE
*****
 37 41 0 0 0
SMALL
GASTEIGER

@<TRIPOS>ATOM
      1 C          59.8022   91.5474    4.6082 C.ar    1  UNL1        0.0516
      2 C          61.2012   91.1323    4.2613 C.ar    1  UNL1        0.0147
      3 C          61.9233   91.8012    3.1294 C.ar    1  UNL1        0.0013
      4 C          61.2463   92.8854    2.3444 C.ar    1  UNL1        0.0007
      5 C          59.8473   93.3006    2.6914 C.ar    1  UNL1        0.0013
      6 C          59.1252   92.6316    3.8233 C.ar    1  UNL1        0.0147
      7 C          61.9682   93.5544    1.2125 C.ar    1  UNL1        0.0096
      8 C          63.1967   94.4069    1.3316 C.ar    1  UNL1        0.0355
      9 S          63.5762   94.8677   -0.0445 S.2     1  UNL1       -0.0863
     10 C          62.5822   94.3001   -1.0140 C.ar    1  UNL1        0.0337
     11 C          62.4537   94.4175   -2.5038 C.ar    1  UNL1        0.0268
     12 C          61.3313   93.7232   -3.2168 C.ar    1  UNL1        0.1008
     13 N          60.3375   92.9115   -2.4399 N.ar    1  UNL1       -0.2296
     14 C          60.4661   92.7942   -0.9500 C.ar    1  UNL1        0.1258
     15 N          59.4723   91.9825   -0.1731 N.pl3   1  UNL1       -0.3426
     16 C          61.5884   93.4885   -0.2371 C.ar    1  UNL1        0.0377
     17 H          58.7357   91.5268   -0.6410 H       1  UNL1        0.1437
     18 H          59.5567   91.9055    0.8048 H       1  UNL1        0.1437
     19 C          63.4475   95.2291   -3.2808 C.ar    1  UNL1        0.0212
     20 C          64.7085   95.7028   -2.6209 C.ar    1  UNL1        0.0032
     21 C          65.7023   96.5145   -3.3978 C.ar    1  UNL1        0.0207
     22 C          65.4350   96.8525   -4.8346 C.ar    1  UNL1        0.0989
     23 N          64.1740   96.3788   -5.4944 N.ar    1  UNL1       -0.2423
     24 C          63.1802   95.5671   -4.7175 C.ar    1  UNL1        0.0989
     25 N          59.1036   89.3010    7.8043 N.am    1  UNL1       -0.2681
     26 C          59.8255   89.9700    6.6724 C.2     1  UNL1        0.3082
     27 O          61.2928   89.7305    6.4728 O.2     1  UNL1       -0.2522
     28 N          59.0802   90.8784    5.7401 N.am    1  UNL1       -0.2681
     29 H          58.1406   89.4581    7.9352 H       1  UNL1        0.1564
     30 H          58.1172   91.0356    5.8711 H       1  UNL1        0.1564
     31 C          62.3300   85.2998    8.5663 C.3     1  UNL1        0.0311
     32 C          61.4621   86.3919    9.1176 C.ar    1  UNL1       -0.0206
     33 C          61.3394   86.5755   10.6013 C.ar    1  UNL1       -0.0042
     34 C          60.4714   87.6676   11.1526 C.ar    1  UNL1        0.0010
     35 C          59.7262   88.5761   10.2203 C.ar    1  UNL1        0.0147
     36 C          59.8489   88.3924    8.7366 C.ar    1  UNL1        0.0513
     37 C          60.7168   87.3003    8.1853 C.ar    1  UNL1        0.0105
@<TRIPOS>BOND
     1    31    32    1
     2    32    33   ar
     3    33    34   ar
     4    34    35   ar
     5    35    36   ar
     6    36    25    1
     7    25    26   am
     8    26    27    2
     9    26    28   am
    10    28     1    1
    11     1     2   ar
    12     2     3   ar
    13     3     4   ar
    14     4     7    1
    15     7     8   ar
    16     8     9   ar
    17     9    10   ar
    18    10    11   ar
    19    11    19    1
    20    19    20   ar
    21    20    21   ar
    22    21    22   ar
    23    22    23   ar
    24    23    24   ar
    25    11    12   ar
    26    12    13   ar
    27    13    14   ar
    28    14    15    1
    29    14    16   ar
    30     4     5   ar
    31     5     6   ar
    32    36    37   ar
    33    37    32   ar
    34     6     1   ar
    35    16     7   ar
    36    16    10   ar
    37    24    19   ar
    38    25    29    1
    39    28    30    1
    40    15    17    1
    41    15    18    1
