@<TRIPOS>MOLECULE
*****
 33 36 0 0 0
SMALL
GASTEIGER

@<TRIPOS>ATOM
      1 C          61.6133   88.3285   10.9576 C.ar    1  UNL1        0.0535
      2 C          62.4892   87.2101   11.4394 C.ar    1  UNL1        0.0422
      3 C          63.4217   87.2634   12.6131 C.3     1  UNL1        0.0502
      4 N          62.2688   86.0290   10.5413 N.ar    1  UNL1       -0.3121
      5 C          61.2567   86.4175    9.5045 C.ar    1  UNL1        0.1439
      6 N          60.6518   85.6607    8.3594 N.ar    1  UNL1       -0.2268
      7 C          59.6417   86.3251    7.4716 C.ar    1  UNL1        0.1005
      8 C          59.2366   87.7463    7.7289 C.ar    1  UNL1        0.0208
      9 C          59.8416   88.5031    8.8740 C.ar    1  UNL1        0.0047
     10 C          60.8517   87.8386    9.7618 C.ar    1  UNL1        0.0384
     11 C          61.5162   89.6966   11.5649 C.2     1  UNL1        0.1967
     12 O          60.1992   90.1970   12.0796 O.2     1  UNL1       -0.2865
     13 C          65.1763   92.2999   11.8430 C.ar    1  UNL1        0.1387
     14 C          64.6436   91.6211   13.0701 C.ar    1  UNL1        0.0370
     15 C          63.4237   90.7534   12.9774 C.ar    1  UNL1        0.0063
     16 C          62.7363   90.5644   11.6577 C.ar    1  UNL1        0.0392
     17 C          63.2689   91.2431   10.4306 C.ar    1  UNL1        0.0063
     18 C          64.4889   92.1109   10.5233 C.ar    1  UNL1        0.0370
     19 C          66.3752   94.5548   11.3653 C.3     1  UNL1        0.2525
     20 O          66.3963   93.1676   11.9358 O.3     1  UNL1       -0.4714
     21 C          62.9422   84.6939   10.6593 C.3     1  UNL1        0.1339
     22 C          62.7212   83.8475   11.8779 C.ar    1  UNL1        0.0034
     23 C          62.4527   82.3789   11.7324 C.ar    1  UNL1       -0.0022
     24 C          62.2317   81.5325   12.9509 C.ar    1  UNL1        0.0029
     25 C          62.2792   82.1547   14.3149 C.ar    1  UNL1        0.0369
     26 C          62.5477   83.6233   14.4604 C.ar    1  UNL1        0.1387
     27 C          62.7687   84.4697   13.2419 C.ar    1  UNL1        0.0345
     28 O          62.5952   84.2456   15.8244 O.3     1  UNL1       -0.4736
     29 C          63.4527   85.4519   16.0691 C.3     1  UNL1        0.2020
     30 C          64.8241   85.5319   15.4667 C.3     1  UNL1        0.0536
     31 C          62.9386   86.5781   16.9160 C.2     1  UNL1        0.0900
     32 O          63.2647   87.9971   16.5552 O.co2   1  UNL1       -0.5455
     33 O          62.0986   86.2854   18.1237 O.co2   1  UNL1       -0.5455
@<TRIPOS>UNITY_ATOM_ATTR
32 1
charge -1
@<TRIPOS>BOND
     1    19    20    1
     2    20    13    1
     3    13    14   ar
     4    14    15   ar
     5    15    16   ar
     6    16    11    1
     7    11    12    2
     8    11     1    1
     9     1     2   ar
    10     2     3    1
    11     2     4   ar
    12     4    21    1
    13    21    22    1
    14    22    23   ar
    15    23    24   ar
    16    24    25   ar
    17    25    26   ar
    18    26    28    1
    19    28    29    1
    20    29    30    1
    21    29    31    1
    22    31    32   ar
    23    31    33   ar
    24    26    27   ar
    25     4     5   ar
    26     5     6   ar
    27     6     7   ar
    28     7     8   ar
    29     8     9   ar
    30     9    10   ar
    31    16    17   ar
    32    17    18   ar
    33    18    13   ar
    34    10     1   ar
    35    27    22   ar
    36    10     5   ar
@<TRIPOS>MOLECULE
*****
 33 36 0 0 0
SMALL
GASTEIGER

@<TRIPOS>ATOM
      1 C          63.4569   86.1622   12.8610 C.ar    1  UNL1        0.0535
      2 C          63.6888   87.4488   13.5964 C.ar    1  UNL1        0.0422
      3 C          64.4531   87.6069   14.8773 C.3     1  UNL1        0.0502
      4 N          63.0221   88.5497   12.8259 N.ar    1  UNL1       -0.3121
      5 C          62.3783   87.9434   11.6143 C.ar    1  UNL1        0.1439
      6 N          61.5820   88.5444   10.4941 N.ar    1  UNL1       -0.2268
      7 C          61.0545   87.6697    9.3957 C.ar    1  UNL1        0.1005
      8 C          61.3232   86.1942    9.4173 C.ar    1  UNL1        0.0208
      9 C          62.1195   85.5932   10.5375 C.ar    1  UNL1        0.0047
     10 C          62.6470   86.4679   11.6360 C.ar    1  UNL1        0.0384
     11 C          63.9487   84.8077   13.2774 C.2     1  UNL1        0.1967
     12 O          64.6919   84.6443   14.5700 O.2     1  UNL1       -0.2865
     13 C          63.1942   81.2340   10.6488 C.ar    1  UNL1        0.1387
     14 C          64.2219   82.2525   10.2531 C.ar    1  UNL1        0.0370
     15 C          64.4734   83.4437   11.1293 C.ar    1  UNL1        0.0063
     16 C          63.6972   83.6164   12.4011 C.ar    1  UNL1        0.0392
     17 C          62.6695   82.5979   12.7968 C.ar    1  UNL1        0.0063
     18 C          62.4180   81.4067   11.9207 C.ar    1  UNL1        0.0370
     19 C          62.7857   78.6819   10.3836 C.3     1  UNL1        0.2525
     20 O          62.9427   80.0428    9.7725 O.3     1  UNL1       -0.4714
     21 C          63.0027   90.0019   13.2011 C.3     1  UNL1        0.1339
     22 C          64.2173   90.8520   12.9721 C.ar    1  UNL1        0.0034
     23 C          65.3207   90.8725   13.9879 C.ar    1  UNL1       -0.0022
     24 C          66.5352   91.7225   13.7591 C.ar    1  UNL1        0.0029
     25 C          66.6462   92.5521   12.5143 C.ar    1  UNL1        0.0369
     26 C          65.5428   92.5316   11.4985 C.ar    1  UNL1        0.1387
     27 C          64.3283   91.6816   11.7273 C.ar    1  UNL1        0.0345
     28 O          65.6538   93.3612   10.2537 O.3     1  UNL1       -0.4736
     29 C          66.5057   94.5959   10.2487 C.3     1  UNL1        0.2020
     30 C          66.1398   95.7630   11.1169 C.3     1  UNL1        0.0536
     31 C          67.7235   94.6633    9.3755 C.2     1  UNL1        0.0900
     32 O          68.8932   93.7649    9.6491 O.co2   1  UNL1       -0.5455
     33 O          67.7716   95.6289    8.2287 O.co2   1  UNL1       -0.5455
@<TRIPOS>UNITY_ATOM_ATTR
32 1
charge -1
@<TRIPOS>BOND
     1    19    20    1
     2    20    13    1
     3    13    14   ar
     4    14    15   ar
     5    15    16   ar
     6    16    11    1
     7    11    12    2
     8    11     1    1
     9     1     2   ar
    10     2     3    1
    11     2     4   ar
    12     4    21    1
    13    21    22    1
    14    22    23   ar
    15    23    24   ar
    16    24    25   ar
    17    25    26   ar
    18    26    28    1
    19    28    29    1
    20    29    30    1
    21    29    31    1
    22    31    32   ar
    23    31    33   ar
    24    26    27   ar
    25     4     5   ar
    26     5     6   ar
    27     6     7   ar
    28     7     8   ar
    29     8     9   ar
    30     9    10   ar
    31    16    17   ar
    32    17    18   ar
    33    18    13   ar
    34    10     1   ar
    35    27    22   ar
    36    10     5   ar
@<TRIPOS>MOLECULE
*****
 33 36 0 0 0
SMALL
GASTEIGER

@<TRIPOS>ATOM
      1 C          63.5823   87.1466   13.1483 C.ar    1  UNL1        0.0535
      2 C          63.7314   88.6122   13.4307 C.ar    1  UNL1        0.0422
      3 C          64.4533   89.2161   14.5988 C.3     1  UNL1        0.0502
      4 N          63.0319   89.3680   12.3401 N.ar    1  UNL1       -0.3121
      5 C          62.4505   88.3695   11.3836 C.ar    1  UNL1        0.1439
      6 N          61.6552   88.5330   10.1223 N.ar    1  UNL1       -0.2268
      7 C          61.2001   87.3237    9.3606 C.ar    1  UNL1        0.1005
      8 C          61.5402   85.9508    9.8601 C.ar    1  UNL1        0.0208
      9 C          62.3355   85.7873   11.1213 C.ar    1  UNL1        0.0047
     10 C          62.7906   86.9966   11.8831 C.ar    1  UNL1        0.0384
     11 C          64.1288   86.0275   13.9843 C.2     1  UNL1        0.1967
     12 O          65.0208   86.3298   15.1516 O.2     1  UNL1       -0.2865
     13 C          63.0922   81.7629   12.9900 C.ar    1  UNL1        0.1387
     14 C          62.2804   82.5157   14.0020 C.ar    1  UNL1        0.0370
     15 C          62.6258   83.9372   14.3335 C.ar    1  UNL1        0.0063
     16 C          63.7832   84.6059   13.6529 C.ar    1  UNL1        0.0392
     17 C          64.5951   83.8531   12.6409 C.ar    1  UNL1        0.0063
     18 C          64.2496   82.4316   12.3094 C.ar    1  UNL1        0.0370
     19 C          61.8151   79.5695   13.5455 C.3     1  UNL1        0.2525
     20 O          62.7467   80.3413   12.6586 O.3     1  UNL1       -0.4714
     21 C          62.9315   90.8603   12.2259 C.3     1  UNL1        0.1339
     22 C          64.1555   91.6735   11.9245 C.ar    1  UNL1        0.0034
     23 C          64.6217   91.8300   10.5074 C.ar    1  UNL1       -0.0022
     24 C          65.8456   92.6432   10.2060 C.ar    1  UNL1        0.0029
     25 C          66.6033   93.2997   11.3217 C.ar    1  UNL1        0.0369
     26 C          66.1371   93.1432   12.7388 C.ar    1  UNL1        0.1387
     27 C          64.9132   92.3300   13.0402 C.ar    1  UNL1        0.0345
     28 O          66.8948   93.7997   13.8545 O.3     1  UNL1       -0.4736
     29 C          67.3074   92.9989   15.0539 C.3     1  UNL1        0.2020
     30 C          66.2983   92.6543   16.1089 C.3     1  UNL1        0.0536
     31 C          68.7290   92.5427   15.1983 C.2     1  UNL1        0.0900
     32 O          69.5838   92.3549   13.9800 O.co2   1  UNL1       -0.5455
     33 O          69.2959   92.2743   16.5608 O.co2   1  UNL1       -0.5455
@<TRIPOS>UNITY_ATOM_ATTR
32 1
charge -1
@<TRIPOS>BOND
     1    19    20    1
     2    20    13    1
     3    13    14   ar
     4    14    15   ar
     5    15    16   ar
     6    16    11    1
     7    11    12    2
     8    11     1    1
     9     1     2   ar
    10     2     3    1
    11     2     4   ar
    12     4    21    1
    13    21    22    1
    14    22    23   ar
    15    23    24   ar
    16    24    25   ar
    17    25    26   ar
    18    26    28    1
    19    28    29    1
    20    29    30    1
    21    29    31    1
    22    31    32   ar
    23    31    33   ar
    24    26    27   ar
    25     4     5   ar
    26     5     6   ar
    27     6     7   ar
    28     7     8   ar
    29     8     9   ar
    30     9    10   ar
    31    16    17   ar
    32    17    18   ar
    33    18    13   ar
    34    10     1   ar
    35    27    22   ar
    36    10     5   ar
@<TRIPOS>MOLECULE
*****
 33 36 0 0 0
SMALL
GASTEIGER

@<TRIPOS>ATOM
      1 C          63.6534   86.6667   13.1178 C.ar    1  UNL1        0.0535
      2 C          63.7223   88.0850   13.6011 C.ar    1  UNL1        0.0422
      3 C          64.3950   88.5573   14.8558 C.3     1  UNL1        0.0502
      4 N          63.0003   88.9482   12.6093 N.ar    1  UNL1       -0.3121
      5 C          62.4852   88.0633   11.5130 C.ar    1  UNL1        0.1439
      6 N          61.7008   88.3594   10.2693 N.ar    1  UNL1       -0.2268
      7 C          61.3200   87.2454    9.3398 C.ar    1  UNL1        0.1005
      8 C          61.7236   85.8353    9.6541 C.ar    1  UNL1        0.0208
      9 C          62.5081   85.5393   10.8978 C.ar    1  UNL1        0.0047
     10 C          62.8888   86.6533   11.8273 C.ar    1  UNL1        0.0384
     11 C          64.2452   85.4715   13.8044 C.2     1  UNL1        0.1967
     12 O          65.5676   85.5862   14.5028 O.2     1  UNL1       -0.2865
     13 C          62.0529   81.5418   13.7691 C.ar    1  UNL1        0.1387
     14 C          63.1194   81.8148   12.7503 C.ar    1  UNL1        0.0370
     15 C          63.8502   83.1247   12.7620 C.ar    1  UNL1        0.0063
     16 C          63.5144   84.1616   13.7926 C.ar    1  UNL1        0.0392
     17 C          62.4479   83.8885   14.8114 C.ar    1  UNL1        0.0063
     18 C          61.7171   82.5787   14.7997 C.ar    1  UNL1        0.0370
     19 C          59.8855   80.1705   14.1846 C.3     1  UNL1        0.2525
     20 O          61.3221   80.2319   13.7573 O.3     1  UNL1       -0.4714
     21 C          62.8243   90.4352   12.6981 C.3     1  UNL1        0.1339
     22 C          63.8935   91.3494   12.1774 C.ar    1  UNL1        0.0034
     23 C          63.9687   91.6569   10.7111 C.ar    1  UNL1       -0.0022
     24 C          65.0378   92.5711   10.1904 C.ar    1  UNL1        0.0029
     25 C          66.0317   93.1778   11.1359 C.ar    1  UNL1        0.0369
     26 C          65.9565   92.8704   12.6021 C.ar    1  UNL1        0.1387
     27 C          64.8874   91.9562   13.1229 C.ar    1  UNL1        0.0345
     28 O          66.9504   93.4771   13.5476 O.3     1  UNL1       -0.4736
     29 C          67.8915   92.5955   14.3140 C.3     1  UNL1        0.2020
     30 C          68.8586   91.7142   13.5805 C.3     1  UNL1        0.0536
     31 C          67.8655   92.5953   15.8137 C.2     1  UNL1        0.0900
     32 O          69.1361   92.3963   16.5858 O.co2   1  UNL1       -0.5455
     33 O          66.5691   92.7940   16.5414 O.co2   1  UNL1       -0.5455
@<TRIPOS>UNITY_ATOM_ATTR
32 1
charge -1
@<TRIPOS>BOND
     1    19    20    1
     2    20    13    1
     3    13    14   ar
     4    14    15   ar
     5    15    16   ar
     6    16    11    1
     7    11    12    2
     8    11     1    1
     9     1     2   ar
    10     2     3    1
    11     2     4   ar
    12     4    21    1
    13    21    22    1
    14    22    23   ar
    15    23    24   ar
    16    24    25   ar
    17    25    26   ar
    18    26    28    1
    19    28    29    1
    20    29    30    1
    21    29    31    1
    22    31    32   ar
    23    31    33   ar
    24    26    27   ar
    25     4     5   ar
    26     5     6   ar
    27     6     7   ar
    28     7     8   ar
    29     8     9   ar
    30     9    10   ar
    31    16    17   ar
    32    17    18   ar
    33    18    13   ar
    34    10     1   ar
    35    27    22   ar
    36    10     5   ar
@<TRIPOS>MOLECULE
*****
 33 36 0 0 0
SMALL
GASTEIGER

@<TRIPOS>ATOM
      1 C          62.2509   86.2482   10.1719 C.ar    1  UNL1        0.0535
      2 C          62.5167   87.2521   11.2543 C.ar    1  UNL1        0.0422
      3 C          63.4893   87.0927   12.3851 C.3     1  UNL1        0.0502
      4 N          61.6392   88.4433   11.0073 N.ar    1  UNL1       -0.3121
      5 C          60.8311   88.1756    9.7723 C.ar    1  UNL1        0.1439
      6 N          59.7998   88.9919    9.0511 N.ar    1  UNL1       -0.2268
      7 C          59.1466   88.4516    7.8137 C.ar    1  UNL1        0.1005
      8 C          59.5247   87.0950    7.2974 C.ar    1  UNL1        0.0208
      9 C          60.5559   86.2786    8.0185 C.ar    1  UNL1        0.0047
     10 C          61.2091   86.8190    9.2559 C.ar    1  UNL1        0.0384
     11 C          62.9110   84.9087   10.0303 C.2     1  UNL1        0.1967
     12 O          63.6592   84.5702    8.7751 O.2     1  UNL1       -0.2865
     13 C          62.6465   81.9055   13.3711 C.ar    1  UNL1        0.1387
     14 C          62.3817   83.3565   13.6442 C.ar    1  UNL1        0.0370
     15 C          62.4698   84.3575   12.5307 C.ar    1  UNL1        0.0063
     16 C          62.8228   83.9076   11.1439 C.ar    1  UNL1        0.0392
     17 C          63.0877   82.4567   10.8709 C.ar    1  UNL1        0.0063
     18 C          62.9995   81.4556   11.9844 C.ar    1  UNL1        0.0370
     19 C          62.0616   79.5164   14.2080 C.3     1  UNL1        0.2525
     20 O          62.5583   80.9045   14.4847 O.3     1  UNL1       -0.4714
     21 C          61.5802   89.6843   11.8478 C.3     1  UNL1        0.1339
     22 C          62.8212   90.4957   12.0754 C.ar    1  UNL1        0.0034
     23 C          63.4548   90.5319   13.4345 C.ar    1  UNL1       -0.0022
     24 C          64.6957   91.3432   13.6622 C.ar    1  UNL1        0.0029
     25 C          65.3030   92.1184   12.5307 C.ar    1  UNL1        0.0369
     26 C          64.6693   92.0823   11.1716 C.ar    1  UNL1        0.1387
     27 C          63.4284   91.2709   10.9439 C.ar    1  UNL1        0.0345
     28 O          65.2765   92.8575   10.0401 O.3     1  UNL1       -0.4736
     29 C          66.6366   93.4709   10.1959 C.3     1  UNL1        0.2020
     30 C          66.7687   94.9122   10.5899 C.3     1  UNL1        0.0536
     31 C          67.8645   92.6429    9.9577 C.2     1  UNL1        0.0900
     32 O          68.3821   92.4532    8.5626 O.co2   1  UNL1       -0.5455
     33 O          68.5748   92.0047   11.1144 O.co2   1  UNL1       -0.5455
@<TRIPOS>UNITY_ATOM_ATTR
32 1
charge -1
@<TRIPOS>BOND
     1    19    20    1
     2    20    13    1
     3    13    14   ar
     4    14    15   ar
     5    15    16   ar
     6    16    11    1
     7    11    12    2
     8    11     1    1
     9     1     2   ar
    10     2     3    1
    11     2     4   ar
    12     4    21    1
    13    21    22    1
    14    22    23   ar
    15    23    24   ar
    16    24    25   ar
    17    25    26   ar
    18    26    28    1
    19    28    29    1
    20    29    30    1
    21    29    31    1
    22    31    32   ar
    23    31    33   ar
    24    26    27   ar
    25     4     5   ar
    26     5     6   ar
    27     6     7   ar
    28     7     8   ar
    29     8     9   ar
    30     9    10   ar
    31    16    17   ar
    32    17    18   ar
    33    18    13   ar
    34    10     1   ar
    35    27    22   ar
    36    10     5   ar
@<TRIPOS>MOLECULE
*****
 33 36 0 0 0
SMALL
GASTEIGER

@<TRIPOS>ATOM
      1 C          61.9131   88.0824   11.4497 C.ar    1  UNL1        0.0535
      2 C          62.2886   89.4080   12.0428 C.ar    1  UNL1        0.0422
      3 C          61.8076   90.7503   11.5771 C.3     1  UNL1        0.0502
      4 N          63.2295   89.1556   13.1835 N.ar    1  UNL1       -0.3121
      5 C          63.4355   87.6740   13.2953 C.ar    1  UNL1        0.1439
      6 N          64.2588   86.8433   14.2344 N.ar    1  UNL1       -0.2268
      7 C          64.2686   85.3492   14.1020 C.ar    1  UNL1        0.1005
      8 C          63.4550   84.6859   13.0305 C.ar    1  UNL1        0.0208
      9 C          62.6317   85.5167   12.0914 C.ar    1  UNL1        0.0047
     10 C          62.6220   87.0107   12.2238 C.ar    1  UNL1        0.0384
     11 C          60.9908   87.8663   10.2868 C.2     1  UNL1        0.1967
     12 O          59.6928   88.6140   10.2099 O.2     1  UNL1       -0.2865
     13 C          62.1178   84.9748    7.0281 C.ar    1  UNL1        0.1387
     14 C          63.1539   85.4435    8.0062 C.ar    1  UNL1        0.0370
     15 C          62.7783   86.4073    9.0924 C.ar    1  UNL1        0.0063
     16 C          61.3665   86.9024    9.2005 C.ar    1  UNL1        0.0392
     17 C          60.3304   86.4337    8.2223 C.ar    1  UNL1        0.0063
     18 C          60.7060   85.4699    7.1361 C.ar    1  UNL1        0.0370
     19 C          61.7615   84.0335    4.6328 C.3     1  UNL1        0.2525
     20 O          62.4935   84.0109    5.9419 O.3     1  UNL1       -0.4714
     21 C          63.8546   90.2012   14.0586 C.3     1  UNL1        0.1339
     22 C          64.9827   91.0405   13.5357 C.ar    1  UNL1        0.0034
     23 C          66.2864   91.0899   14.2759 C.ar    1  UNL1       -0.0022
     24 C          67.4144   91.9290   13.7530 C.ar    1  UNL1        0.0029
     25 C          67.2386   92.7188   12.4900 C.ar    1  UNL1        0.0369
     26 C          65.9349   92.6694   11.7498 C.ar    1  UNL1        0.1387
     27 C          64.8069   91.8303   12.2726 C.ar    1  UNL1        0.0345
     28 O          65.7591   93.4592   10.4867 O.3     1  UNL1       -0.4736
     29 C          66.4988   94.7509   10.3008 C.3     1  UNL1        0.2020
     30 C          66.0630   95.9785   11.0446 C.3     1  UNL1        0.0536
     31 C          67.6741   94.8150    9.3710 C.2     1  UNL1        0.0900
     32 O          67.7134   95.8458    8.2819 O.co2   1  UNL1       -0.5455
     33 O          68.8100   93.8485    9.5303 O.co2   1  UNL1       -0.5455
@<TRIPOS>UNITY_ATOM_ATTR
32 1
charge -1
@<TRIPOS>BOND
     1    19    20    1
     2    20    13    1
     3    13    14   ar
     4    14    15   ar
     5    15    16   ar
     6    16    11    1
     7    11    12    2
     8    11     1    1
     9     1     2   ar
    10     2     3    1
    11     2     4   ar
    12     4    21    1
    13    21    22    1
    14    22    23   ar
    15    23    24   ar
    16    24    25   ar
    17    25    26   ar
    18    26    28    1
    19    28    29    1
    20    29    30    1
    21    29    31    1
    22    31    32   ar
    23    31    33   ar
    24    26    27   ar
    25     4     5   ar
    26     5     6   ar
    27     6     7   ar
    28     7     8   ar
    29     8     9   ar
    30     9    10   ar
    31    16    17   ar
    32    17    18   ar
    33    18    13   ar
    34    10     1   ar
    35    27    22   ar
    36    10     5   ar
@<TRIPOS>MOLECULE
*****
 33 36 0 0 0
SMALL
GASTEIGER

@<TRIPOS>ATOM
      1 C          62.7824   87.1119   11.4882 C.ar    1  UNL1        0.0535
      2 C          62.8564   88.5886   11.7409 C.ar    1  UNL1        0.0422
      3 C          62.5123   89.6695   10.7594 C.3     1  UNL1        0.0502
      4 N          63.3349   88.7947   13.1475 N.ar    1  UNL1       -0.3121
      5 C          63.5566   87.4453   13.7641 C.ar    1  UNL1        0.1439
      6 N          64.0253   87.0293   15.1269 N.ar    1  UNL1       -0.2268
      7 C          64.1525   85.5733   15.4641 C.ar    1  UNL1        0.1005
      8 C          63.8111   84.5333   14.4385 C.ar    1  UNL1        0.0208
      9 C          63.3424   84.9493   13.0757 C.ar    1  UNL1        0.0047
     10 C          63.2152   86.4053   12.7385 C.ar    1  UNL1        0.0384
     11 C          62.3513   86.4568   10.2095 C.2     1  UNL1        0.1967
     12 O          62.9398   85.1370    9.8074 O.2     1  UNL1       -0.2865
     13 C          59.2926   88.4511    7.5794 C.ar    1  UNL1        0.1387
     14 C          60.1799   89.2805    8.4596 C.ar    1  UNL1        0.0370
     15 C          61.1994   88.6158    9.3363 C.ar    1  UNL1        0.0063
     16 C          61.3317   87.1216    9.3327 C.ar    1  UNL1        0.0392
     17 C          60.4445   86.2923    8.4525 C.ar    1  UNL1        0.0063
     18 C          59.4249   86.9569    7.5758 C.ar    1  UNL1        0.0370
     19 C          58.6628   90.2931    5.8587 C.3     1  UNL1        0.2525
     20 O          58.2731   89.1159    6.7027 O.3     1  UNL1       -0.4714
     21 C          63.5533   90.1178   13.8197 C.3     1  UNL1        0.1339
     22 C          64.7091   90.9835   13.4137 C.ar    1  UNL1        0.0034
     23 C          65.9408   91.0393   14.2680 C.ar    1  UNL1       -0.0022
     24 C          67.0966   91.9049   13.8622 C.ar    1  UNL1        0.0029
     25 C          67.0207   92.7148   12.6019 C.ar    1  UNL1        0.0369
     26 C          65.7890   92.6590   11.7476 C.ar    1  UNL1        0.1387
     27 C          64.6332   91.7934   12.1534 C.ar    1  UNL1        0.0345
     28 O          65.7131   93.4689   10.4873 O.3     1  UNL1       -0.4736
     29 C          66.4729   94.7577   10.3770 C.3     1  UNL1        0.2020
     30 C          66.0663   95.9411   11.2042 C.3     1  UNL1        0.0536
     31 C          67.6392   94.8629    9.4396 C.2     1  UNL1        0.0900
     32 O          67.6545   95.9221    8.3776 O.co2   1  UNL1       -0.5455
     33 O          68.7900   93.9090    9.5642 O.co2   1  UNL1       -0.5455
@<TRIPOS>UNITY_ATOM_ATTR
32 1
charge -1
@<TRIPOS>BOND
     1    19    20    1
     2    20    13    1
     3    13    14   ar
     4    14    15   ar
     5    15    16   ar
     6    16    11    1
     7    11    12    2
     8    11     1    1
     9     1     2   ar
    10     2     3    1
    11     2     4   ar
    12     4    21    1
    13    21    22    1
    14    22    23   ar
    15    23    24   ar
    16    24    25   ar
    17    25    26   ar
    18    26    28    1
    19    28    29    1
    20    29    30    1
    21    29    31    1
    22    31    32   ar
    23    31    33   ar
    24    26    27   ar
    25     4     5   ar
    26     5     6   ar
    27     6     7   ar
    28     7     8   ar
    29     8     9   ar
    30     9    10   ar
    31    16    17   ar
    32    17    18   ar
    33    18    13   ar
    34    10     1   ar
    35    27    22   ar
    36    10     5   ar
@<TRIPOS>MOLECULE
*****
 33 36 0 0 0
SMALL
GASTEIGER

@<TRIPOS>ATOM
      1 C          60.0710   88.1506    8.4628 C.ar    1  UNL1        0.0535
      2 C          60.2786   89.0197    9.6676 C.ar    1  UNL1        0.0422
      3 C          59.5171   90.2700    9.9946 C.3     1  UNL1        0.0502
      4 N          61.3814   88.4190   10.4879 N.ar    1  UNL1       -0.3121
      5 C          61.8553   87.1786    9.7901 C.ar    1  UNL1        0.1439
      6 N          62.9197   86.1788   10.1327 N.ar    1  UNL1       -0.2268
      7 C          63.1742   85.0131    9.2237 C.ar    1  UNL1        0.1005
      8 C          62.3643   84.8473    7.9720 C.ar    1  UNL1        0.0208
      9 C          61.2999   85.8471    7.6294 C.ar    1  UNL1        0.0047
     10 C          61.0454   87.0128    8.5385 C.ar    1  UNL1        0.0384
     11 C          59.0654   88.3792    7.3735 C.2     1  UNL1        0.1967
     12 O          57.9299   87.4171    7.1870 O.2     1  UNL1       -0.2865
     13 C          59.4554   91.9515    4.6648 C.ar    1  UNL1        0.1387
     14 C          58.1063   91.5423    5.1769 C.ar    1  UNL1        0.0370
     15 C          57.9762   90.3516    6.0797 C.ar    1  UNL1        0.0063
     16 C          59.1954   89.5700    6.4705 C.ar    1  UNL1        0.0392
     17 C          60.5446   89.9792    5.9585 C.ar    1  UNL1        0.0063
     18 C          60.6747   91.1700    5.0556 C.ar    1  UNL1        0.0370
     19 C          60.1562   92.9803    2.3843 C.3     1  UNL1        0.2525
     20 O          59.5854   93.1423    3.7620 O.3     1  UNL1       -0.4714
     21 C          61.9164   88.9631   11.7793 C.3     1  UNL1        0.1339
     22 C          62.9895   90.0111   11.7644 C.ar    1  UNL1        0.0034
     23 C          63.1490   90.9042   10.5699 C.ar    1  UNL1       -0.0022
     24 C          64.2220   91.9522   10.5549 C.ar    1  UNL1        0.0029
     25 C          65.1356   92.1071   11.7345 C.ar    1  UNL1        0.0369
     26 C          64.9761   91.2140   12.9290 C.ar    1  UNL1        0.1387
     27 C          63.9030   90.1660   12.9440 C.ar    1  UNL1        0.0345
     28 O          65.8896   91.3688   14.1086 O.3     1  UNL1       -0.4736
     29 C          67.1047   92.2426   14.0066 C.3     1  UNL1        0.2020
     30 C          68.3429   91.7296   13.3330 C.3     1  UNL1        0.0536
     31 C          67.0815   93.6292   14.5783 C.2     1  UNL1        0.0900
     32 O          67.7426   93.9085   15.8955 O.co2   1  UNL1       -0.5455
     33 O          66.3973   94.7364   13.8328 O.co2   1  UNL1       -0.5455
@<TRIPOS>UNITY_ATOM_ATTR
32 1
charge -1
@<TRIPOS>BOND
     1    19    20    1
     2    20    13    1
     3    13    14   ar
     4    14    15   ar
     5    15    16   ar
     6    16    11    1
     7    11    12    2
     8    11     1    1
     9     1     2   ar
    10     2     3    1
    11     2     4   ar
    12     4    21    1
    13    21    22    1
    14    22    23   ar
    15    23    24   ar
    16    24    25   ar
    17    25    26   ar
    18    26    28    1
    19    28    29    1
    20    29    30    1
    21    29    31    1
    22    31    32   ar
    23    31    33   ar
    24    26    27   ar
    25     4     5   ar
    26     5     6   ar
    27     6     7   ar
    28     7     8   ar
    29     8     9   ar
    30     9    10   ar
    31    16    17   ar
    32    17    18   ar
    33    18    13   ar
    34    10     1   ar
    35    27    22   ar
    36    10     5   ar
@<TRIPOS>MOLECULE
*****
 33 36 0 0 0
SMALL
GASTEIGER

@<TRIPOS>ATOM
      1 C          62.9287   86.6756   11.5268 C.ar    1  UNL1        0.0535
      2 C          62.6588   88.1438   11.3810 C.ar    1  UNL1        0.0422
      3 C          62.0943   88.8203   10.1670 C.3     1  UNL1        0.0502
      4 N          63.0526   88.8169   12.6624 N.ar    1  UNL1       -0.3121
      5 C          63.5658   87.7646   13.6001 C.ar    1  UNL1        0.1439
      6 N          64.0929   87.8405   15.0023 N.ar    1  UNL1       -0.2268
      7 C          64.5435   86.5930   15.7027 C.ar    1  UNL1        0.1005
      8 C          64.4669   85.2695   15.0009 C.ar    1  UNL1        0.0208
      9 C          63.9398   85.1936   13.5986 C.ar    1  UNL1        0.0047
     10 C          63.4892   86.4412   12.8982 C.ar    1  UNL1        0.0384
     11 C          62.6814   85.6259   10.4842 C.2     1  UNL1        0.1967
     12 O          62.3530   86.0289    9.0772 O.2     1  UNL1       -0.2865
     13 C          62.9249   81.2674   11.5773 C.ar    1  UNL1        0.1387
     14 C          62.0454   82.1908   12.3672 C.ar    1  UNL1        0.0370
     15 C          61.9643   83.6436   12.0029 C.ar    1  UNL1        0.0063
     16 C          62.7625   84.1730   10.8486 C.ar    1  UNL1        0.0392
     17 C          63.6420   83.2496   10.0587 C.ar    1  UNL1        0.0063
     18 C          63.7231   81.7968   10.4230 C.ar    1  UNL1        0.0370
     19 C          62.6394   79.3668   13.3256 C.3     1  UNL1        0.2525
     20 O          63.0060   79.8146   11.9417 O.3     1  UNL1       -0.4714
     21 C          62.9510   90.2846   12.9547 C.3     1  UNL1        0.1339
     22 C          64.1441   91.1726   12.7595 C.ar    1  UNL1        0.0034
     23 C          65.1564   91.3207   13.8565 C.ar    1  UNL1       -0.0022
     24 C          66.3494   92.2086   13.6613 C.ar    1  UNL1        0.0029
     25 C          66.5302   92.9485   12.3690 C.ar    1  UNL1        0.0369
     26 C          65.5180   92.8004   11.2721 C.ar    1  UNL1        0.1387
     27 C          64.3249   91.9125   11.4672 C.ar    1  UNL1        0.0345
     28 O          65.6988   93.5403    9.9798 O.3     1  UNL1       -0.4736
     29 C          66.3835   94.8750    9.9691 C.3     1  UNL1        0.2020
     30 C          65.7659   96.0405   10.6835 C.3     1  UNL1        0.0536
     31 C          67.6857   95.0441    9.2442 C.2     1  UNL1        0.0900
     32 O          67.8767   96.1978    8.3047 O.co2   1  UNL1       -0.5455
     33 O          68.7969   94.0596    9.4586 O.co2   1  UNL1       -0.5455
@<TRIPOS>UNITY_ATOM_ATTR
32 1
charge -1
@<TRIPOS>BOND
     1    19    20    1
     2    20    13    1
     3    13    14   ar
     4    14    15   ar
     5    15    16   ar
     6    16    11    1
     7    11    12    2
     8    11     1    1
     9     1     2   ar
    10     2     3    1
    11     2     4   ar
    12     4    21    1
    13    21    22    1
    14    22    23   ar
    15    23    24   ar
    16    24    25   ar
    17    25    26   ar
    18    26    28    1
    19    28    29    1
    20    29    30    1
    21    29    31    1
    22    31    32   ar
    23    31    33   ar
    24    26    27   ar
    25     4     5   ar
    26     5     6   ar
    27     6     7   ar
    28     7     8   ar
    29     8     9   ar
    30     9    10   ar
    31    16    17   ar
    32    17    18   ar
    33    18    13   ar
    34    10     1   ar
    35    27    22   ar
    36    10     5   ar
