@<TRIPOS>MOLECULE
*****
 33 37 0 0 0
SMALL
GASTEIGER

@<TRIPOS>ATOM
      1 C          61.9887   86.6651    9.2584 C.3     1  UNL1        0.0920
      2 C          60.7881   87.0682    8.4546 C.3     1  UNL1        0.0429
      3 C          60.2103   88.3064    9.0736 C.3     1  UNL1        0.0985
      4 N          61.0538   88.6684   10.2600 N.am    1  UNL1       -0.2443
      5 C          60.8363   89.8393   11.1721 C.2     1  UNL1        0.4048
      6 O          59.6879   90.7739   10.9320 O.2     1  UNL1       -0.2262
      7 C          62.1529   87.6541   10.3743 C.3     1  UNL1        0.1162
      8 N          62.8703   85.4809    8.9930 N.pl3   1  UNL1       -0.3180
      9 H          63.3222   85.3887    8.1232 H       1  UNL1        0.1482
     10 C          63.4500   82.3498   12.1726 C.ar    1  UNL1        0.0877
     11 C          64.1628   82.2253   10.8587 C.ar    1  UNL1        0.0147
     12 C          63.9696   83.2690    9.7988 C.ar    1  UNL1        0.0348
     13 C          63.0635   84.4372   10.0529 C.ar    1  UNL1        0.1286
     14 N          62.3508   84.5616   11.3668 N.ar    1  UNL1       -0.2287
     15 C          62.5439   83.5180   12.4267 C.ar    1  UNL1        0.1105
     16 N          63.8364   80.2623   14.2924 N.1     1  UNL1       -0.1908
     17 C          63.6432   81.3060   13.2325 C.1     1  UNL1        0.1020
     18 O          61.7673   90.0756   12.3241 O.3     1  UNL1       -0.4383
     19 C          63.0406   90.8406   12.1149 C.3     1  UNL1        0.1702
     20 C          63.9870   91.0492   13.2598 C.3     1  UNL1        0.0407
     21 C          64.3138   91.6055   11.9056 C.3     1  UNL1        0.0036
     22 C          65.5870   92.3704   11.6964 C.3     1  UNL1        0.0007
     23 C          64.6406   92.1617   10.5515 C.3     1  UNL1        0.0036
     24 C          63.3674   91.3968   10.7607 C.3     1  UNL1        0.0407
     25 C          65.8489   92.2235   12.7526 C.3     1  UNL1        0.0122
     26 C          66.2066   92.0228   14.1954 C.3     1  UNL1        0.0688
     27 C          66.5334   92.5790   12.8413 C.3     1  UNL1        0.0086
     28 C          64.9334   91.2579   14.4047 C.3     1  UNL1        0.0122
     29 C          67.1530   92.2314   15.3403 C.2     1  UNL1        0.2184
     30 N          68.5309   91.6407   15.2916 N.am    1  UNL1       -0.3288
     31 O          66.7215   93.0307   16.5340 O.2     1  UNL1       -0.2754
     32 H          68.8141   91.1161   14.5081 H       1  UNL1        0.1449
     33 H          69.1520   91.7777   16.0430 H       1  UNL1        0.1449
@<TRIPOS>BOND
     1    16    17    3
     2    17    10    1
     3    10    11   ar
     4    11    12   ar
     5    12    13   ar
     6    13     8    1
     7     1     8    1
     8     1     2    1
     9     2     3    1
    10     3     4    1
    11     4     5   am
    12     5     6    2
    13     5    18    1
    14    19    18    1
    15    19    20    1
    16    20    21    1
    17    21    22    1
    18    22    23    1
    19    23    24    1
    20    24    25    1
    21    25    26    1
    22    26    29    1
    23    29    30   am
    24    29    31    2
    25    26    27    1
    26    26    28    1
    27     4     7    1
    28    13    14   ar
    29    14    15   ar
    30    15    10   ar
    31     7     1    1
    32    24    19    1
    33    28    20    1
    34    27    22    1
    35     8     9    1
    36    30    32    1
    37    30    33    1
@<TRIPOS>MOLECULE
*****
 33 37 0 0 0
SMALL
GASTEIGER

@<TRIPOS>ATOM
      1 C          63.7856   83.3099   14.6066 C.3     1  UNL1        0.0920
      2 C          63.4305   81.8552   14.5174 C.3     1  UNL1        0.0429
      3 C          63.3825   81.4779   13.0665 C.3     1  UNL1        0.0985
      4 N          63.7081   82.6993   12.2589 N.am    1  UNL1       -0.2443
      5 C          63.7731   82.7752   10.7622 C.2     1  UNL1        0.4048
      6 O          63.4980   81.5534    9.9366 O.2     1  UNL1       -0.2262
      7 C          63.9572   83.8316   13.2107 C.3     1  UNL1        0.1162
      8 N          63.9418   84.1035   15.8699 N.pl3   1  UNL1       -0.3180
      9 H          64.0966   83.6416   16.7254 H       1  UNL1        0.1482
     10 C          63.7025   88.5954   15.7491 C.ar    1  UNL1        0.0877
     11 C          64.4636   87.8562   14.6888 C.ar    1  UNL1        0.0147
     12 C          64.5434   86.3588   14.7291 C.ar    1  UNL1        0.0348
     13 C          63.8620   85.6008   15.8296 C.ar    1  UNL1        0.1286
     14 N          63.1009   86.3401   16.8899 N.ar    1  UNL1       -0.2287
     15 C          63.0211   87.8374   16.8497 C.ar    1  UNL1        0.1105
     16 N          63.5429   91.5901   15.6686 N.1     1  UNL1       -0.1908
     17 C          63.6227   90.0928   15.7088 C.1     1  UNL1        0.1020
     18 O          64.1132   84.0729   10.0911 O.3     1  UNL1       -0.4383
     19 C          63.0250   84.9190    9.4995 C.3     1  UNL1        0.1702
     20 C          62.3564   85.9717   10.3331 C.3     1  UNL1        0.0407
     21 C          61.9369   85.7652    8.9079 C.3     1  UNL1        0.0036
     22 C          60.8488   86.6113    8.3163 C.3     1  UNL1        0.0007
     23 C          61.5174   85.5587    7.4827 C.3     1  UNL1        0.0036
     24 C          62.6055   84.7125    8.0742 C.3     1  UNL1        0.0407
     25 C          60.7435   87.1435    9.2710 C.3     1  UNL1        0.0122
     26 C          60.5998   87.8705   10.5751 C.3     1  UNL1        0.0688
     27 C          60.1802   87.6640    9.1499 C.3     1  UNL1        0.0086
     28 C          61.6879   87.0243   11.1667 C.3     1  UNL1        0.0122
     29 C          59.9312   88.9231   11.4088 C.2     1  UNL1        0.2184
     30 N          58.9809   88.5250   12.4989 N.am    1  UNL1       -0.3288
     31 O          60.2129   90.3739   11.1523 O.2     1  UNL1       -0.2754
     32 H          58.7960   87.5728   12.6673 H       1  UNL1        0.1449
     33 H          58.5421   89.2159   13.0460 H       1  UNL1        0.1449
@<TRIPOS>BOND
     1    16    17    3
     2    17    10    1
     3    10    11   ar
     4    11    12   ar
     5    12    13   ar
     6    13     8    1
     7     1     8    1
     8     1     2    1
     9     2     3    1
    10     3     4    1
    11     4     5   am
    12     5     6    2
    13     5    18    1
    14    19    18    1
    15    19    20    1
    16    20    21    1
    17    21    22    1
    18    22    23    1
    19    23    24    1
    20    24    25    1
    21    25    26    1
    22    26    29    1
    23    29    30   am
    24    29    31    2
    25    26    27    1
    26    26    28    1
    27     4     7    1
    28    13    14   ar
    29    14    15   ar
    30    15    10   ar
    31     7     1    1
    32    24    19    1
    33    28    20    1
    34    27    22    1
    35     8     9    1
    36    30    32    1
    37    30    33    1
@<TRIPOS>MOLECULE
*****
 33 37 0 0 0
SMALL
GASTEIGER

@<TRIPOS>ATOM
      1 C          63.4044   90.2837   11.7549 C.3     1  UNL1        0.0920
      2 C          63.2261   91.3435   10.7084 C.3     1  UNL1        0.0429
      3 C          62.2605   90.8256    9.6840 C.3     1  UNL1        0.0985
      4 N          61.8419   89.4457   10.0973 N.am    1  UNL1       -0.2443
      5 C          60.8845   88.5568    9.3602 C.2     1  UNL1        0.4048
      6 O          60.2514   89.0302    8.0854 O.2     1  UNL1       -0.2262
      7 C          62.5489   89.1107   11.3772 C.3     1  UNL1        0.1162
      8 N          64.2837   90.3798   12.9663 N.pl3   1  UNL1       -0.3180
      9 H          65.0870   90.9487   12.9475 H       1  UNL1        0.1482
     10 C          63.2499   88.0684   16.6862 C.ar    1  UNL1        0.0877
     11 C          63.9273   87.3792   15.5390 C.ar    1  UNL1        0.0147
     12 C          64.2719   88.1497   14.2990 C.ar    1  UNL1        0.0348
     13 C          63.9391   89.6094   14.2063 C.ar    1  UNL1        0.1286
     14 N          63.2617   90.2986   15.3535 N.ar    1  UNL1       -0.2287
     15 C          62.9171   89.5281   16.5935 C.ar    1  UNL1        0.1105
     16 N          62.5606   86.5275   19.1663 N.1     1  UNL1       -0.1908
     17 C          62.9052   87.2979   17.9262 C.1     1  UNL1        0.1020
     18 O          60.5602   87.1946    9.8980 O.3     1  UNL1       -0.4383
     19 C          61.6127   86.1259    9.9176 C.3     1  UNL1        0.1702
     20 C          62.0288   85.5069   11.2190 C.3     1  UNL1        0.0407
     21 C          62.6651   85.0573    9.9373 C.3     1  UNL1        0.0036
     22 C          63.7175   83.9887    9.9569 C.3     1  UNL1        0.0007
     23 C          63.3014   84.6077    8.6555 C.3     1  UNL1        0.0036
     24 C          62.2490   85.6763    8.6358 C.3     1  UNL1        0.0407
     25 C          63.6245   83.9170   11.0487 C.3     1  UNL1        0.0122
     26 C          63.4973   83.8193   12.5401 C.3     1  UNL1        0.0688
     27 C          64.1336   83.3696   11.2584 C.3     1  UNL1        0.0086
     28 C          62.4449   84.8879   12.5204 C.3     1  UNL1        0.0122
     29 C          63.9134   83.2003   13.8415 C.2     1  UNL1        0.2184
     30 N          64.7694   83.9737   14.8002 N.am    1  UNL1       -0.3288
     31 O          63.4735   81.8078   14.1843 O.2     1  UNL1       -0.2754
     32 H          65.0581   84.8876   14.5752 H       1  UNL1        0.1449
     33 H          65.0424   83.5674   15.6543 H       1  UNL1        0.1449
@<TRIPOS>BOND
     1    16    17    3
     2    17    10    1
     3    10    11   ar
     4    11    12   ar
     5    12    13   ar
     6    13     8    1
     7     1     8    1
     8     1     2    1
     9     2     3    1
    10     3     4    1
    11     4     5   am
    12     5     6    2
    13     5    18    1
    14    19    18    1
    15    19    20    1
    16    20    21    1
    17    21    22    1
    18    22    23    1
    19    23    24    1
    20    24    25    1
    21    25    26    1
    22    26    29    1
    23    29    30   am
    24    29    31    2
    25    26    27    1
    26    26    28    1
    27     4     7    1
    28    13    14   ar
    29    14    15   ar
    30    15    10   ar
    31     7     1    1
    32    24    19    1
    33    28    20    1
    34    27    22    1
    35     8     9    1
    36    30    32    1
    37    30    33    1
@<TRIPOS>MOLECULE
*****
 33 37 0 0 0
SMALL
GASTEIGER

@<TRIPOS>ATOM
      1 C          61.1169   88.0927   10.4049 C.3     1  UNL1        0.0920
      2 C          60.2197   88.0950    9.2028 C.3     1  UNL1        0.0429
      3 C          60.6608   86.9869    8.2930 C.3     1  UNL1        0.0985
      4 N          61.8306   86.2998    8.9329 N.am    1  UNL1       -0.2443
      5 C          62.5859   85.1339    8.3669 C.2     1  UNL1        0.4048
      6 O          62.1865   84.5530    7.0429 O.2     1  UNL1       -0.2262
      7 C          62.1126   86.9831   10.2381 C.3     1  UNL1        0.1162
      8 N          61.0333   89.0346   11.5693 N.pl3   1  UNL1       -0.3180
      9 H          60.2085   89.0834   12.1047 H       1  UNL1        0.1482
     10 C          64.5522   91.6369   12.6156 C.ar    1  UNL1        0.0877
     11 C          64.0609   91.5736   11.1998 C.ar    1  UNL1        0.0147
     12 C          62.8879   90.7062   10.8510 C.ar    1  UNL1        0.0348
     13 C          62.2063   89.9020   11.9181 C.ar    1  UNL1        0.1286
     14 N          62.6976   89.9653   13.3339 N.ar    1  UNL1       -0.2287
     15 C          63.8705   90.8327   13.6827 C.ar    1  UNL1        0.1105
     16 N          66.8982   93.3718   13.3132 N.1     1  UNL1       -0.1908
     17 C          65.7252   92.5043   12.9644 C.1     1  UNL1        0.1020
     18 O          63.7405   84.5490    9.1249 O.3     1  UNL1       -0.4383
     19 C          63.4911   83.7273   10.3549 C.3     1  UNL1        0.1702
     20 C          63.4314   84.3893   11.6997 C.3     1  UNL1        0.0407
     21 C          63.2418   82.9058   11.5849 C.3     1  UNL1        0.0036
     22 C          62.9924   82.0842   12.8148 C.3     1  UNL1        0.0007
     23 C          63.0521   81.4223   11.4701 C.3     1  UNL1        0.0036
     24 C          63.3015   82.2438   10.2402 C.3     1  UNL1        0.0407
     25 C          63.0473   82.9910   13.4317 C.3     1  UNL1        0.0122
     26 C          63.1223   84.2297   14.2743 C.3     1  UNL1        0.0688
     27 C          62.9327   82.7462   14.1595 C.3     1  UNL1        0.0086
     28 C          63.3717   85.0512   13.0444 C.3     1  UNL1        0.0122
     29 C          63.0626   84.8916   15.6190 C.2     1  UNL1        0.2184
     30 N          64.3292   85.3003   16.3107 N.am    1  UNL1       -0.3288
     31 O          61.7362   85.1449   16.2721 O.2     1  UNL1       -0.2754
     32 H          65.1998   85.1341   15.8821 H       1  UNL1        0.1449
     33 H          64.2900   85.7348   17.1933 H       1  UNL1        0.1449
@<TRIPOS>BOND
     1    16    17    3
     2    17    10    1
     3    10    11   ar
     4    11    12   ar
     5    12    13   ar
     6    13     8    1
     7     1     8    1
     8     1     2    1
     9     2     3    1
    10     3     4    1
    11     4     5   am
    12     5     6    2
    13     5    18    1
    14    19    18    1
    15    19    20    1
    16    20    21    1
    17    21    22    1
    18    22    23    1
    19    23    24    1
    20    24    25    1
    21    25    26    1
    22    26    29    1
    23    29    30   am
    24    29    31    2
    25    26    27    1
    26    26    28    1
    27     4     7    1
    28    13    14   ar
    29    14    15   ar
    30    15    10   ar
    31     7     1    1
    32    24    19    1
    33    28    20    1
    34    27    22    1
    35     8     9    1
    36    30    32    1
    37    30    33    1
@<TRIPOS>MOLECULE
*****
 33 37 0 0 0
SMALL
GASTEIGER

@<TRIPOS>ATOM
      1 C          62.3418   89.9850   12.7905 C.3     1  UNL1        0.0920
      2 C          62.3687   91.1287   11.8203 C.3     1  UNL1        0.0429
      3 C          61.8197   90.6404   10.5126 C.3     1  UNL1        0.0985
      4 N          61.4535   89.1948   10.6745 N.am    1  UNL1       -0.2443
      5 C          60.8675   88.3096    9.6147 C.2     1  UNL1        0.4048
      6 O          60.5978   88.8576    8.2446 O.2     1  UNL1       -0.2262
      7 C          61.7761   88.7897   12.0823 C.3     1  UNL1        0.1162
      8 N          62.8000   90.0288   14.2181 N.pl3   1  UNL1       -0.3180
      9 H          62.3038   89.5342   14.9097 H       1  UNL1        0.1482
     10 C          66.4428   92.4209   15.3394 C.ar    1  UNL1        0.0877
     11 C          66.4242   91.6381   14.0600 C.ar    1  UNL1        0.0147
     12 C          65.2099   90.8407   13.6862 C.ar    1  UNL1        0.0348
     13 C          64.0143   90.8262   14.5919 C.ar    1  UNL1        0.1286
     14 N          64.0329   91.6090   15.8713 N.ar    1  UNL1       -0.2287
     15 C          65.2471   92.4063   16.2451 C.ar    1  UNL1        0.1105
     16 N          68.8714   94.0157   16.0870 N.1     1  UNL1       -0.1908
     17 C          67.6571   93.2183   15.7132 C.1     1  UNL1        0.1020
     18 O          60.5512   86.8766    9.9250 O.3     1  UNL1       -0.4383
     19 C          61.6537   85.8611    9.9846 C.3     1  UNL1        0.1702
     20 C          62.0532   85.2644   11.3015 C.3     1  UNL1        0.0407
     21 C          62.7561   84.8457   10.0443 C.3     1  UNL1        0.0036
     22 C          63.8585   83.8303   10.1040 C.3     1  UNL1        0.0007
     23 C          63.4589   84.4270    8.7871 C.3     1  UNL1        0.0036
     24 C          62.3565   85.4424    8.7274 C.3     1  UNL1        0.0407
     25 C          63.7303   83.7550   11.1920 C.3     1  UNL1        0.0122
     26 C          63.5552   83.6522   12.6782 C.3     1  UNL1        0.0688
     27 C          64.2580   83.2335   11.4209 C.3     1  UNL1        0.0086
     28 C          62.4528   84.6677   12.6185 C.3     1  UNL1        0.0122
     29 C          63.9547   83.0555   13.9951 C.2     1  UNL1        0.2184
     30 N          64.7218   83.8767   14.9887 N.am    1  UNL1       -0.3288
     31 O          63.5872   81.6377   14.3184 O.2     1  UNL1       -0.2754
     32 H          64.9630   84.8073   14.7765 H       1  UNL1        0.1449
     33 H          64.9840   83.4850   15.8530 H       1  UNL1        0.1449
@<TRIPOS>BOND
     1    16    17    3
     2    17    10    1
     3    10    11   ar
     4    11    12   ar
     5    12    13   ar
     6    13     8    1
     7     1     8    1
     8     1     2    1
     9     2     3    1
    10     3     4    1
    11     4     5   am
    12     5     6    2
    13     5    18    1
    14    19    18    1
    15    19    20    1
    16    20    21    1
    17    21    22    1
    18    22    23    1
    19    23    24    1
    20    24    25    1
    21    25    26    1
    22    26    29    1
    23    29    30   am
    24    29    31    2
    25    26    27    1
    26    26    28    1
    27     4     7    1
    28    13    14   ar
    29    14    15   ar
    30    15    10   ar
    31     7     1    1
    32    24    19    1
    33    28    20    1
    34    27    22    1
    35     8     9    1
    36    30    32    1
    37    30    33    1
@<TRIPOS>MOLECULE
*****
 33 37 0 0 0
SMALL
GASTEIGER

@<TRIPOS>ATOM
      1 C          61.9792   86.6078    9.3358 C.3     1  UNL1        0.0920
      2 C          60.4849   86.5871    9.2053 C.3     1  UNL1        0.0429
      3 C          59.9699   87.9510    9.5579 C.3     1  UNL1        0.0985
      4 N          61.1458   88.8147    9.9063 N.am    1  UNL1       -0.2443
      5 C          61.0897   90.2557   10.3195 C.2     1  UNL1        0.4048
      6 O          59.7677   90.9582   10.4130 O.2     1  UNL1       -0.2262
      7 C          62.3876   87.9846    9.7690 C.3     1  UNL1        0.1162
      8 N          62.9028   85.4543    9.0782 N.pl3   1  UNL1       -0.3180
      9 H          63.3862   85.3922    8.2228 H       1  UNL1        0.1482
     10 C          63.4640   82.2774   12.2155 C.ar    1  UNL1        0.0877
     11 C          62.6959   83.5243   12.5398 C.ar    1  UNL1        0.0147
     12 C          62.5088   84.5833   11.4940 C.ar    1  UNL1        0.0348
     13 C          63.0899   84.3953   10.1240 C.ar    1  UNL1        0.1286
     14 N          63.8580   83.1484    9.7997 N.ar    1  UNL1       -0.2287
     15 C          64.0451   82.0895   10.8453 C.ar    1  UNL1        0.1105
     16 N          63.8382   80.1595   14.3070 N.1     1  UNL1       -0.1908
     17 C          63.6511   81.2185   13.2612 C.1     1  UNL1        0.1020
     18 O          62.3557   90.9940   10.6390 O.3     1  UNL1       -0.4383
     19 C          63.1318   90.6516   11.8761 C.3     1  UNL1        0.1702
     20 C          64.3188   91.4798   12.2701 C.3     1  UNL1        0.0407
     21 C          63.9079   90.3093   13.1132 C.3     1  UNL1        0.0036
     22 C          64.6840   89.9670   14.3503 C.3     1  UNL1        0.0007
     23 C          63.4971   89.1388   13.9564 C.3     1  UNL1        0.0036
     24 C          62.7209   89.4811   12.7193 C.3     1  UNL1        0.0407
     25 C          65.3594   90.8117   14.1605 C.3     1  UNL1        0.0122
     26 C          66.2819   91.9657   13.9011 C.3     1  UNL1        0.0688
     27 C          65.8710   90.7952   14.7442 C.3     1  UNL1        0.0086
     28 C          65.5058   92.3081   12.6640 C.3     1  UNL1        0.0122
     29 C          67.4688   92.7939   14.2950 C.2     1  UNL1        0.2184
     30 N          67.2849   94.0027   15.1638 N.am    1  UNL1       -0.3288
     31 O          68.8398   92.4134   13.8200 O.2     1  UNL1       -0.2754
     32 H          66.3850   94.2525   15.4756 H       1  UNL1        0.1449
     33 H          68.0639   94.5463   15.4224 H       1  UNL1        0.1449
@<TRIPOS>BOND
     1    16    17    3
     2    17    10    1
     3    10    11   ar
     4    11    12   ar
     5    12    13   ar
     6    13     8    1
     7     1     8    1
     8     1     2    1
     9     2     3    1
    10     3     4    1
    11     4     5   am
    12     5     6    2
    13     5    18    1
    14    19    18    1
    15    19    20    1
    16    20    21    1
    17    21    22    1
    18    22    23    1
    19    23    24    1
    20    24    25    1
    21    25    26    1
    22    26    29    1
    23    29    30   am
    24    29    31    2
    25    26    27    1
    26    26    28    1
    27     4     7    1
    28    13    14   ar
    29    14    15   ar
    30    15    10   ar
    31     7     1    1
    32    24    19    1
    33    28    20    1
    34    27    22    1
    35     8     9    1
    36    30    32    1
    37    30    33    1
@<TRIPOS>MOLECULE
*****
 33 37 0 0 0
SMALL
GASTEIGER

@<TRIPOS>ATOM
      1 C          63.1565   87.5136   16.4330 C.3     1  UNL1        0.0920
      2 C          62.3073   86.6746   17.3414 C.3     1  UNL1        0.0429
      3 C          62.4387   85.2444   16.9087 C.3     1  UNL1        0.0985
      4 N          63.3691   85.1994   15.7329 N.am    1  UNL1       -0.2443
      5 C          63.7832   83.9681   14.9828 C.2     1  UNL1        0.4048
      6 O          63.2548   82.6260   15.3944 O.2     1  UNL1       -0.2262
      7 C          63.8127   86.6018   15.4389 C.3     1  UNL1        0.1162
      8 N          63.3206   89.0028   16.5059 N.pl3   1  UNL1       -0.3180
      9 H          63.1759   89.4728   17.3588 H       1  UNL1        0.1482
     10 C          64.4746   91.3221   12.8265 C.ar    1  UNL1        0.0877
     11 C          65.3069   91.4258   14.0701 C.ar    1  UNL1        0.0147
     12 C          64.9222   90.6527   15.2966 C.ar    1  UNL1        0.0348
     13 C          63.7053   89.7759   15.2794 C.ar    1  UNL1        0.1286
     14 N          62.8730   89.6722   14.0358 N.ar    1  UNL1       -0.2287
     15 C          63.2576   90.4452   12.8093 C.ar    1  UNL1        0.1105
     16 N          65.2439   92.8683   10.3734 N.1     1  UNL1       -0.1908
     17 C          64.8592   92.0952   11.5999 C.1     1  UNL1        0.1020
     18 O          64.7256   84.0791   13.8212 O.3     1  UNL1       -0.4383
     19 C          64.1873   84.1525   12.4230 C.3     1  UNL1        0.1702
     20 C          63.3234   85.3077   12.0116 C.3     1  UNL1        0.0407
     21 C          63.6489   84.2260   11.0249 C.3     1  UNL1        0.0036
     22 C          63.1106   84.2994    9.6267 C.3     1  UNL1        0.0007
     23 C          63.9745   83.1442   10.0381 C.3     1  UNL1        0.0036
     24 C          64.5128   83.0708   11.4362 C.3     1  UNL1        0.0407
     25 C          62.6079   85.2449    9.8699 C.3     1  UNL1        0.0122
     26 C          61.9212   86.5364   10.2022 C.3     1  UNL1        0.0688
     27 C          62.2467   85.4546    9.2154 C.3     1  UNL1        0.0086
     28 C          62.4595   86.4629   11.6003 C.3     1  UNL1        0.0122
     29 C          61.0573   87.6916    9.7909 C.2     1  UNL1        0.2184
     30 N          61.5951   89.0904    9.8549 N.am    1  UNL1       -0.3288
     31 O          59.6557   87.4480    9.3155 O.2     1  UNL1       -0.2754
     32 H          62.5150   89.2503   10.1669 H       1  UNL1        0.1449
     33 H          61.0281   89.8486    9.5849 H       1  UNL1        0.1449
@<TRIPOS>BOND
     1    16    17    3
     2    17    10    1
     3    10    11   ar
     4    11    12   ar
     5    12    13   ar
     6    13     8    1
     7     1     8    1
     8     1     2    1
     9     2     3    1
    10     3     4    1
    11     4     5   am
    12     5     6    2
    13     5    18    1
    14    19    18    1
    15    19    20    1
    16    20    21    1
    17    21    22    1
    18    22    23    1
    19    23    24    1
    20    24    25    1
    21    25    26    1
    22    26    29    1
    23    29    30   am
    24    29    31    2
    25    26    27    1
    26    26    28    1
    27     4     7    1
    28    13    14   ar
    29    14    15   ar
    30    15    10   ar
    31     7     1    1
    32    24    19    1
    33    28    20    1
    34    27    22    1
    35     8     9    1
    36    30    32    1
    37    30    33    1
@<TRIPOS>MOLECULE
*****
 33 37 0 0 0
SMALL
GASTEIGER

@<TRIPOS>ATOM
      1 C          64.2790   86.6172   14.6881 C.3     1  UNL1        0.0920
      2 C          65.4665   85.8232   15.1460 C.3     1  UNL1        0.0429
      3 C          65.4454   84.5042   14.4319 C.3     1  UNL1        0.0985
      4 N          64.2450   84.4830   13.5327 N.am    1  UNL1       -0.2443
      5 C          63.8371   83.3542   12.6331 C.2     1  UNL1        0.4048
      6 O          64.6614   82.1021   12.5798 O.2     1  UNL1       -0.2262
      7 C          63.5241   85.7889   13.6910 C.3     1  UNL1        0.1162
      8 N          63.9111   87.9971   15.1468 N.pl3   1  UNL1       -0.3180
      9 H          63.4656   88.1247   16.0154 H       1  UNL1        0.1482
     10 C          64.8435   91.5537   12.5525 C.ar    1  UNL1        0.0877
     11 C          63.7909   90.5724   12.1296 C.ar    1  UNL1        0.0147
     12 C          63.4800   89.3868   12.9944 C.ar    1  UNL1        0.0348
     13 C          64.2219   89.1827   14.2820 C.ar    1  UNL1        0.1286
     14 N          65.2746   90.1641   14.7049 N.ar    1  UNL1       -0.2287
     15 C          65.5854   91.3496   13.8402 C.ar    1  UNL1        0.1105
     16 N          65.4652   93.9249   10.8229 N.1     1  UNL1       -0.1908
     17 C          65.1544   92.7393   11.6877 C.1     1  UNL1        0.1020
     18 O          62.6048   83.4774   11.7868 O.3     1  UNL1       -0.4383
     19 C          62.4744   84.6102   10.8122 C.3     1  UNL1        0.1702
     20 C          61.7409   85.8579   11.2062 C.3     1  UNL1        0.0407
     21 C          62.3440   85.7429    9.8376 C.3     1  UNL1        0.0036
     22 C          62.2137   86.8757    8.8631 C.3     1  UNL1        0.0007
     23 C          62.9472   85.6280    8.4691 C.3     1  UNL1        0.0036
     24 C          63.0776   84.4953    9.4436 C.3     1  UNL1        0.0407
     25 C          61.6487   87.4517    9.6080 C.3     1  UNL1        0.0122
     26 C          60.8770   88.2383   10.6257 C.3     1  UNL1        0.0688
     27 C          61.4801   88.1234    9.2571 C.3     1  UNL1        0.0086
     28 C          61.0074   87.1055   11.6002 C.3     1  UNL1        0.0122
     29 C          60.1435   89.4860   11.0197 C.2     1  UNL1        0.2184
     30 N          59.8316   89.7484   12.4632 N.am    1  UNL1       -0.3288
     31 O          59.7219   90.4713    9.9702 O.2     1  UNL1       -0.2754
     32 H          60.1083   89.1018   13.1520 H       1  UNL1        0.1449
     33 H          59.3501   90.5673   12.7218 H       1  UNL1        0.1449
@<TRIPOS>BOND
     1    16    17    3
     2    17    10    1
     3    10    11   ar
     4    11    12   ar
     5    12    13   ar
     6    13     8    1
     7     1     8    1
     8     1     2    1
     9     2     3    1
    10     3     4    1
    11     4     5   am
    12     5     6    2
    13     5    18    1
    14    19    18    1
    15    19    20    1
    16    20    21    1
    17    21    22    1
    18    22    23    1
    19    23    24    1
    20    24    25    1
    21    25    26    1
    22    26    29    1
    23    29    30   am
    24    29    31    2
    25    26    27    1
    26    26    28    1
    27     4     7    1
    28    13    14   ar
    29    14    15   ar
    30    15    10   ar
    31     7     1    1
    32    24    19    1
    33    28    20    1
    34    27    22    1
    35     8     9    1
    36    30    32    1
    37    30    33    1
@<TRIPOS>MOLECULE
*****
 33 37 0 0 0
SMALL
GASTEIGER

@<TRIPOS>ATOM
      1 C          63.9495   85.6202   16.1783 C.3     1  UNL1        0.0920
      2 C          62.9330   86.0817   17.1803 C.3     1  UNL1        0.0429
      3 C          62.7274   87.5550   16.9872 C.3     1  UNL1        0.0985
      4 N          63.6168   88.0040   15.8659 N.am    1  UNL1       -0.2443
      5 C          63.7309   89.4032   15.3373 C.2     1  UNL1        0.4048
      6 O          62.9077   90.5024   15.9407 O.2     1  UNL1       -0.2262
      7 C          64.3721   86.8084   15.3659 C.3     1  UNL1        0.1162
      8 N          64.4546   84.2171   16.0169 N.pl3   1  UNL1       -0.3180
      9 H          65.0092   83.8096   16.7209 H       1  UNL1        0.1482
     10 C          63.4349   81.8704   12.3152 C.ar    1  UNL1        0.0877
     11 C          64.3182   83.0788   12.2176 C.ar    1  UNL1        0.0147
     12 C          64.6581   83.8611   13.4515 C.ar    1  UNL1        0.0348
     13 C          64.1147   83.4348   14.7830 C.ar    1  UNL1        0.1286
     14 N          63.2314   82.2264   14.8807 N.ar    1  UNL1       -0.2287
     15 C          62.8915   81.4442   13.6469 C.ar    1  UNL1        0.1105
     16 N          62.7551   80.3058    9.8474 N.1     1  UNL1       -0.1908
     17 C          63.0950   81.0881   11.0813 C.1     1  UNL1        0.1020
     18 O          64.6682   89.7032   14.2053 O.3     1  UNL1       -0.4383
     19 C          65.3237   91.0491   14.1108 C.3     1  UNL1        0.1702
     20 C          65.2824   91.8145   12.8214 C.3     1  UNL1        0.0407
     21 C          65.9791   92.3950   14.0162 C.3     1  UNL1        0.0036
     22 C          66.6345   93.7409   13.9217 C.3     1  UNL1        0.0007
     23 C          66.6757   92.9755   15.2110 C.3     1  UNL1        0.0036
     24 C          66.0203   91.6296   15.3056 C.3     1  UNL1        0.0407
     25 C          66.3226   93.8191   12.8717 C.3     1  UNL1        0.0122
     26 C          65.8966   93.9258   11.4375 C.3     1  UNL1        0.0688
     27 C          66.5932   94.5063   12.6323 C.3     1  UNL1        0.0086
     28 C          65.2412   92.5799   11.5320 C.3     1  UNL1        0.0122
     29 C          65.8553   94.6912   10.1481 C.2     1  UNL1        0.2184
     30 N          64.8535   95.7917    9.9609 N.am    1  UNL1       -0.3288
     31 O          66.8159   94.3560    9.0459 O.2     1  UNL1       -0.2754
     32 H          64.2230   96.0118   10.6844 H       1  UNL1        0.1449
     33 H          64.8264   96.2941    9.1147 H       1  UNL1        0.1449
@<TRIPOS>BOND
     1    16    17    3
     2    17    10    1
     3    10    11   ar
     4    11    12   ar
     5    12    13   ar
     6    13     8    1
     7     1     8    1
     8     1     2    1
     9     2     3    1
    10     3     4    1
    11     4     5   am
    12     5     6    2
    13     5    18    1
    14    19    18    1
    15    19    20    1
    16    20    21    1
    17    21    22    1
    18    22    23    1
    19    23    24    1
    20    24    25    1
    21    25    26    1
    22    26    29    1
    23    29    30   am
    24    29    31    2
    25    26    27    1
    26    26    28    1
    27     4     7    1
    28    13    14   ar
    29    14    15   ar
    30    15    10   ar
    31     7     1    1
    32    24    19    1
    33    28    20    1
    34    27    22    1
    35     8     9    1
    36    30    32    1
    37    30    33    1
