@<TRIPOS>MOLECULE
*****
 16 16 0 0 0
SMALL
GASTEIGER

@<TRIPOS>ATOM
      1 C          62.3084   85.5809    9.9645 C.ar    1  UNL1       -0.0224
      2 C          63.1687   84.5897    9.2383 C.ar    1  UNL1       -0.0030
      3 C          63.9523   83.5695   10.0099 C.ar    1  UNL1        0.0143
      4 C          63.8756   83.5406   11.5076 C.ar    1  UNL1        0.0495
      5 C          63.0153   84.5318   12.2338 C.ar    1  UNL1        0.0143
      6 C          62.2317   85.5519   11.4622 C.ar    1  UNL1       -0.0030
      7 C          61.5248   86.6010    9.1930 C.3     1  UNL1        0.0223
      8 C          61.5975   88.0494    9.5761 C.3     1  UNL1        0.0047
      9 C          59.2790   86.7186    7.8920 C.3     1  UNL1        0.0003
     10 C          60.6685   86.1728    8.0383 C.3     1  UNL1        0.0044
     11 N          64.6592   82.5204   12.2791 N.pl3   1  UNL1       -0.2930
     12 H          65.6426   82.5168   12.2326 H       1  UNL1        0.1538
     13 C          63.9445   81.5058   13.1216 C.2     1  UNL1        0.2056
     14 N          62.8107   80.7136   12.5411 N.2     1  UNL1       -0.0679
     15 O          62.0960   79.6990   13.3836 O.2     1  UNL1       -0.4077
     16 H          61.3878   79.2041   13.0210 H       1  UNL1        0.3278
@<TRIPOS>BOND
     1     9    10    1
     2    10     7    1
     3     7     8    1
     4     7     1    1
     5     1     2   ar
     6     2     3   ar
     7     3     4   ar
     8     4    11    1
     9    11    13    1
    10    13    14    2
    11    14    15    1
    12     4     5   ar
    13     5     6   ar
    14     6     1   ar
    15    11    12    1
    16    15    16    1
@<TRIPOS>MOLECULE
*****
 16 16 0 0 0
SMALL
GASTEIGER

@<TRIPOS>ATOM
      1 C          62.3210   85.6977   10.0258 C.ar    1  UNL1       -0.0224
      2 C          62.2731   85.6729   11.5248 C.ar    1  UNL1       -0.0030
      3 C          63.0548   84.6415   12.2832 C.ar    1  UNL1        0.0143
      4 C          63.8845   83.6350   11.5426 C.ar    1  UNL1        0.0495
      5 C          63.9324   83.6598   10.0436 C.ar    1  UNL1        0.0143
      6 C          63.1507   84.6912    9.2852 C.ar    1  UNL1       -0.0030
      7 C          61.5393   86.7291    9.2674 C.3     1  UNL1        0.0223
      8 C          60.6121   86.3075    8.1663 C.3     1  UNL1        0.0047
      9 C          60.4663   89.0458    9.7484 C.3     1  UNL1        0.0003
     10 C          61.6849   88.1822    9.6100 C.3     1  UNL1        0.0044
     11 N          64.6662   82.6036   12.3010 N.pl3   1  UNL1       -0.2930
     12 H          65.6492   82.6509   12.3256 H       1  UNL1        0.1538
     13 C          63.9501   81.5002   13.0219 C.2     1  UNL1        0.2056
     14 N          62.9986   81.8254   14.1350 N.2     1  UNL1       -0.0679
     15 O          62.2825   80.7219   14.8559 O.2     1  UNL1       -0.4077
     16 H          61.6881   80.9249   15.5512 H       1  UNL1        0.3278
@<TRIPOS>BOND
     1     9    10    1
     2    10     7    1
     3     7     8    1
     4     7     1    1
     5     1     2   ar
     6     2     3   ar
     7     3     4   ar
     8     4    11    1
     9    11    13    1
    10    13    14    2
    11    14    15    1
    12     4     5   ar
    13     5     6   ar
    14     6     1   ar
    15    11    12    1
    16    15    16    1
@<TRIPOS>MOLECULE
*****
 16 16 0 0 0
SMALL
GASTEIGER

@<TRIPOS>ATOM
      1 C          63.4740   83.2170   13.4388 C.ar    1  UNL1       -0.0224
      2 C          62.3925   83.0806   14.4692 C.ar    1  UNL1       -0.0030
      3 C          62.2638   84.1012   15.5610 C.ar    1  UNL1        0.0143
      4 C          63.2165   85.2581   15.6224 C.ar    1  UNL1        0.0495
      5 C          64.2980   85.3944   14.5920 C.ar    1  UNL1        0.0143
      6 C          64.4267   84.3739   13.5002 C.ar    1  UNL1       -0.0030
      7 C          63.6028   82.1965   12.3471 C.3     1  UNL1        0.0223
      8 C          62.8838   80.8847   12.4580 C.3     1  UNL1        0.0047
      9 C          63.9014   83.3197   10.0235 C.3     1  UNL1        0.0003
     10 C          64.4504   82.4877   11.1444 C.3     1  UNL1        0.0044
     11 N          63.0878   86.2786   16.7141 N.pl3   1  UNL1       -0.2930
     12 H          62.7172   86.0197   17.5887 H       1  UNL1        0.1538
     13 C          63.5235   87.6935   16.4733 C.2     1  UNL1        0.2056
     14 N          62.5138   88.8026   16.4910 N.2     1  UNL1       -0.0679
     15 O          62.9496   90.2176   16.2502 O.2     1  UNL1       -0.4077
     16 H          62.3189   90.9105   16.2613 H       1  UNL1        0.3278
@<TRIPOS>BOND
     1     9    10    1
     2    10     7    1
     3     7     8    1
     4     7     1    1
     5     1     2   ar
     6     2     3   ar
     7     3     4   ar
     8     4    11    1
     9    11    13    1
    10    13    14    2
    11    14    15    1
    12     4     5   ar
    13     5     6   ar
    14     6     1   ar
    15    11    12    1
    16    15    16    1
@<TRIPOS>MOLECULE
*****
 16 16 0 0 0
SMALL
GASTEIGER

@<TRIPOS>ATOM
      1 C          66.1101   92.3602   11.7433 C.ar    1  UNL1       -0.0224
      2 C          66.6763   92.2740   13.1296 C.ar    1  UNL1       -0.0030
      3 C          65.8348   91.7422   14.2517 C.ar    1  UNL1        0.0143
      4 C          64.4272   91.2965   13.9874 C.ar    1  UNL1        0.0495
      5 C          63.8610   91.3827   12.6011 C.ar    1  UNL1        0.0143
      6 C          64.7024   91.9146   11.4790 C.ar    1  UNL1       -0.0030
      7 C          66.9516   92.8920   10.6212 C.3     1  UNL1        0.0223
      8 C          66.6758   94.2544   10.0575 C.3     1  UNL1        0.0047
      9 C          68.7593   92.4847    8.8002 C.3     1  UNL1        0.0003
     10 C          68.0688   92.0615   10.0627 C.3     1  UNL1        0.0044
     11 N          63.5857   90.7647   15.1095 N.pl3   1  UNL1       -0.2930
     12 H          63.0381   91.3801   15.6486 H       1  UNL1        0.1538
     13 C          63.5785   89.2952   15.4102 C.2     1  UNL1        0.2056
     14 N          62.8822   88.7840   16.6365 N.2     1  UNL1       -0.0679
     15 O          62.8750   87.3144   16.9372 O.2     1  UNL1       -0.4077
     16 H          62.4401   86.9950   17.7032 H       1  UNL1        0.3278
@<TRIPOS>BOND
     1     9    10    1
     2    10     7    1
     3     7     8    1
     4     7     1    1
     5     1     2   ar
     6     2     3   ar
     7     3     4   ar
     8     4    11    1
     9    11    13    1
    10    13    14    2
    11    14    15    1
    12     4     5   ar
    13     5     6   ar
    14     6     1   ar
    15    11    12    1
    16    15    16    1
@<TRIPOS>MOLECULE
*****
 16 16 0 0 0
SMALL
GASTEIGER

@<TRIPOS>ATOM
      1 C          64.5656   91.7465   11.8366 C.ar    1  UNL1       -0.0224
      2 C          64.2420   90.8625   13.0044 C.ar    1  UNL1       -0.0030
      3 C          63.1718   89.8187   12.8811 C.ar    1  UNL1        0.0143
      4 C          62.4253   89.6589   11.5900 C.ar    1  UNL1        0.0495
      5 C          62.7489   90.5428   10.4221 C.ar    1  UNL1        0.0143
      6 C          63.8190   91.5866   10.5454 C.ar    1  UNL1       -0.0030
      7 C          65.6358   92.7903   11.9598 C.3     1  UNL1        0.0223
      8 C          66.1663   93.1645   13.3121 C.3     1  UNL1        0.0047
      9 C          67.2966   92.8258    9.9623 C.3     1  UNL1        0.0003
     10 C          66.1754   93.4600   10.7309 C.3     1  UNL1        0.0044
     11 N          61.3551   88.6151   11.4667 N.pl3   1  UNL1       -0.2930
     12 H          60.4307   88.8240   11.7331 H       1  UNL1        0.1538
     13 C          61.6934   87.2529   10.9374 C.2     1  UNL1        0.2056
     14 N          61.8800   86.1052   11.8850 N.2     1  UNL1       -0.0679
     15 O          62.2184   84.7430   11.3557 O.2     1  UNL1       -0.4077
     16 H          62.3350   84.0261   11.9476 H       1  UNL1        0.3278
@<TRIPOS>BOND
     1     9    10    1
     2    10     7    1
     3     7     8    1
     4     7     1    1
     5     1     2   ar
     6     2     3   ar
     7     3     4   ar
     8     4    11    1
     9    11    13    1
    10    13    14    2
    11    14    15    1
    12     4     5   ar
    13     5     6   ar
    14     6     1   ar
    15    11    12    1
    16    15    16    1
@<TRIPOS>MOLECULE
*****
 16 16 0 0 0
SMALL
GASTEIGER

@<TRIPOS>ATOM
      1 C          62.1154   87.8911   10.4053 C.ar    1  UNL1       -0.0224
      2 C          62.1016   86.9736    9.2188 C.ar    1  UNL1       -0.0030
      3 C          62.4343   85.5210    9.3900 C.ar    1  UNL1        0.0143
      4 C          62.7808   84.9860   10.7478 C.ar    1  UNL1        0.0495
      5 C          62.7946   85.9035   11.9343 C.ar    1  UNL1        0.0143
      6 C          62.4619   87.3561   11.7631 C.ar    1  UNL1       -0.0030
      7 C          61.7827   89.3437   10.2341 C.3     1  UNL1        0.0223
      8 C          62.8792   90.3670   10.2137 C.3     1  UNL1        0.0047
      9 C          59.6518   90.4567   11.2191 C.3     1  UNL1        0.0003
     10 C          60.3534   89.7731   10.0832 C.3     1  UNL1        0.0044
     11 N          63.1135   83.5334   10.9190 N.pl3   1  UNL1       -0.2930
     12 H          63.5201   83.0307   10.1766 H       1  UNL1        0.1538
     13 C          62.8268   82.8468   12.2214 C.2     1  UNL1        0.2056
     14 N          63.8455   81.9251   12.8236 N.2     1  UNL1       -0.0679
     15 O          63.5588   81.2384   14.1261 O.2     1  UNL1       -0.4077
     16 H          64.1951   80.6627   14.5022 H       1  UNL1        0.3278
@<TRIPOS>BOND
     1     9    10    1
     2    10     7    1
     3     7     8    1
     4     7     1    1
     5     1     2   ar
     6     2     3   ar
     7     3     4   ar
     8     4    11    1
     9    11    13    1
    10    13    14    2
    11    14    15    1
    12     4     5   ar
    13     5     6   ar
    14     6     1   ar
    15    11    12    1
    16    15    16    1
@<TRIPOS>MOLECULE
*****
 16 16 0 0 0
SMALL
GASTEIGER

@<TRIPOS>ATOM
      1 C          62.8629   85.1036   11.6562 C.ar    1  UNL1       -0.0224
      2 C          63.0360   86.4239   12.3467 C.ar    1  UNL1       -0.0030
      3 C          62.6123   87.6896   11.6621 C.ar    1  UNL1        0.0143
      4 C          62.0156   87.6349   10.2871 C.ar    1  UNL1        0.0495
      5 C          61.8424   86.3147    9.5966 C.ar    1  UNL1        0.0143
      6 C          62.2661   85.0490   10.2811 C.ar    1  UNL1       -0.0030
      7 C          63.2866   83.8380   12.3407 C.3     1  UNL1        0.0223
      8 C          64.3571   83.8753   13.3907 C.3     1  UNL1        0.0047
      9 C          62.1241   81.6258   13.0512 C.3     1  UNL1        0.0003
     10 C          62.6397   82.5349   11.9753 C.3     1  UNL1        0.0044
     11 N          61.5919   88.9006    9.6025 N.pl3   1  UNL1       -0.2930
     12 H          61.6398   88.9695    8.6216 H       1  UNL1        0.1538
     13 C          61.0951   90.0613   10.4125 C.2     1  UNL1        0.2056
     14 N          59.6527   90.1300   10.8184 N.2     1  UNL1       -0.0679
     15 O          59.1560   91.2907   11.6284 O.2     1  UNL1       -0.4077
     16 H          58.2550   91.3337   11.8819 H       1  UNL1        0.3278
@<TRIPOS>BOND
     1     9    10    1
     2    10     7    1
     3     7     8    1
     4     7     1    1
     5     1     2   ar
     6     2     3   ar
     7     3     4   ar
     8     4    11    1
     9    11    13    1
    10    13    14    2
    11    14    15    1
    12     4     5   ar
    13     5     6   ar
    14     6     1   ar
    15    11    12    1
    16    15    16    1
@<TRIPOS>MOLECULE
*****
 16 16 0 0 0
SMALL
GASTEIGER

@<TRIPOS>ATOM
      1 C          62.4889   93.0086    1.7314 C.ar    1  UNL1       -0.0224
      2 C          61.1229   93.6225    1.8145 C.ar    1  UNL1       -0.0030
      3 C          60.1635   93.1762    2.8777 C.ar    1  UNL1        0.0143
      4 C          60.5701   92.1159    3.8577 C.ar    1  UNL1        0.0495
      5 C          61.9362   91.5020    3.7745 C.ar    1  UNL1        0.0143
      6 C          62.8956   91.9483    2.7114 C.ar    1  UNL1       -0.0030
      7 C          63.4483   93.4549    0.6682 C.3     1  UNL1        0.0223
      8 C          64.9215   93.2370    0.8479 C.3     1  UNL1        0.0047
      9 C          62.2656   93.3022   -1.6400 C.3     1  UNL1        0.0003
     10 C          62.9346   94.1192   -0.5747 C.3     1  UNL1        0.0044
     11 N          59.6107   91.6696    4.9209 N.pl3   1  UNL1       -0.2930
     12 H          59.9464   91.2173    5.7284 H       1  UNL1        0.1538
     13 C          58.1400   91.9122    4.7537 C.2     1  UNL1        0.2056
     14 N          57.1499   90.9396    5.3227 N.2     1  UNL1       -0.0679
     15 O          55.6791   91.1823    5.1556 O.2     1  UNL1       -0.4077
     16 H          55.0606   90.5748    5.5110 H       1  UNL1        0.3278
@<TRIPOS>BOND
     1     9    10    1
     2    10     7    1
     3     7     8    1
     4     7     1    1
     5     1     2   ar
     6     2     3   ar
     7     3     4   ar
     8     4    11    1
     9    11    13    1
    10    13    14    2
    11    14    15    1
    12     4     5   ar
    13     5     6   ar
    14     6     1   ar
    15    11    12    1
    16    15    16    1
@<TRIPOS>MOLECULE
*****
 16 16 0 0 0
SMALL
GASTEIGER

@<TRIPOS>ATOM
      1 C          63.0688   84.5042   13.0814 C.ar    1  UNL1       -0.0224
      2 C          63.8358   85.0614   14.2438 C.ar    1  UNL1       -0.0030
      3 C          64.0930   86.5364   14.3348 C.ar    1  UNL1        0.0143
      4 C          63.5833   87.4541   13.2635 C.ar    1  UNL1        0.0495
      5 C          62.8164   86.8969   12.1010 C.ar    1  UNL1        0.0143
      6 C          62.5591   85.4220   12.0100 C.ar    1  UNL1       -0.0030
      7 C          62.8116   83.0292   12.9903 C.3     1  UNL1        0.0223
      8 C          62.1594   82.3097   14.1334 C.3     1  UNL1        0.0047
      9 C          62.8839   80.8139   11.6349 C.3     1  UNL1        0.0003
     10 C          63.2065   82.2738   11.7561 C.3     1  UNL1        0.0044
     11 N          63.8406   88.9291   13.3545 N.pl3   1  UNL1       -0.2930
     12 H          64.0446   89.4443   12.5408 H       1  UNL1        0.1538
     13 C          63.7869   89.6190   14.6853 C.2     1  UNL1        0.2056
     14 N          63.6619   91.1124   14.7514 N.2     1  UNL1       -0.0679
     15 O          63.6082   91.8023   16.0823 O.2     1  UNL1       -0.4077
     16 H          63.5302   92.7351   16.1236 H       1  UNL1        0.3278
@<TRIPOS>BOND
     1     9    10    1
     2    10     7    1
     3     7     8    1
     4     7     1    1
     5     1     2   ar
     6     2     3   ar
     7     3     4   ar
     8     4    11    1
     9    11    13    1
    10    13    14    2
    11    14    15    1
    12     4     5   ar
    13     5     6   ar
    14     6     1   ar
    15    11    12    1
    16    15    16    1
