@<TRIPOS>MOLECULE
*****
 34 38 0 0 0
SMALL
GASTEIGER

@<TRIPOS>ATOM
      1 N          62.5194   87.2898   11.8853 N.3     1  UNL1       -0.2679
      2 C          62.8441   88.7229   11.5838 C.3     1  UNL1        0.0978
      3 C          62.4376   89.3238   10.2710 C.3     1  UNL1        0.0224
      4 C          62.7623   90.7569    9.9695 C.3     1  UNL1        0.0065
      5 C          63.4935   91.5890   10.9809 C.3     1  UNL1        0.0277
      6 C          63.8999   90.9881   12.2937 C.ar    1  UNL1       -0.0073
      7 C          64.6311   91.8203   13.3052 C.ar    1  UNL1       -0.0015
      8 C          65.0376   91.2193   14.6180 C.ar    1  UNL1        0.0203
      9 C          64.7129   89.7863   14.9195 C.ar    1  UNL1        0.0985
     10 N          63.9817   88.9541   13.9082 N.ar    1  UNL1       -0.2471
     11 C          63.5752   89.5550   12.5952 C.ar    1  UNL1        0.0695
     12 C          61.3747   86.6173   11.1872 C.3     1  UNL1        0.0724
     13 C          61.9032   85.0394    7.0062 C.3     1  UNL1        0.0155
     14 C          60.6190   85.7076    7.3989 C.3     1  UNL1        0.0014
     15 C          60.4428   86.2336    8.7926 C.3     1  UNL1        0.0014
     16 C          61.5509   86.0913    9.7936 C.3     1  UNL1        0.0160
     17 C          62.8352   85.4231    9.4009 C.3     1  UNL1        0.0014
     18 C          63.0113   84.8971    8.0072 C.3     1  UNL1        0.0014
     19 N          60.9709   83.7460    4.9548 N.3     1  UNL1       -0.3211
     20 C          62.0793   84.5134    5.6126 C.3     1  UNL1        0.0651
     21 H          61.2603   83.4668    4.0175 H       1  UNL1        0.1189
     22 H          60.1401   84.3346    4.8929 H       1  UNL1        0.1189
     23 C          63.3394   86.5293   12.8849 C.3     1  UNL1        0.0886
     24 C          62.9877   85.1098   13.2188 C.3     1  UNL1        0.0748
     25 C          63.2238   84.0222   12.2132 C.3     1  UNL1        0.0432
     26 C          62.8721   82.6027   12.5471 C.ar    1  UNL1       -0.0234
     27 C          63.1082   81.5151   11.5414 C.ar    1  UNL1       -0.0045
     28 C          62.7566   80.0957   11.8753 C.ar    1  UNL1       -0.0003
     29 C          62.1689   79.7639   13.2150 C.ar    1  UNL1       -0.0003
     30 C          61.9329   80.8514   14.2206 C.ar    1  UNL1       -0.0032
     31 C          62.2845   82.2709   13.8867 C.ar    1  UNL1       -0.0103
     32 C          62.0485   83.3585   14.8924 C.3     1  UNL1        0.0953
     33 N          62.4001   84.7779   14.5584 N.3     1  UNL1       -0.2934
     34 H          63.0728   85.0875   15.2599 H       1  UNL1        0.1236
@<TRIPOS>BOND
     1    19    20    1
     2    13    20    1
     3    13    14    1
     4    14    15    1
     5    15    16    1
     6    16    12    1
     7    12     1    1
     8     1    23    1
     9    24    23    1
    10    24    25    1
    11    25    26    1
    12    26    27   ar
    13    27    28   ar
    14    28    29   ar
    15    29    30   ar
    16    30    31   ar
    17    31    32    1
    18    32    33    1
    19     2     1    1
    20     2     3    1
    21     3     4    1
    22     4     5    1
    23     5     6    1
    24     6     7   ar
    25     7     8   ar
    26     8     9   ar
    27     9    10   ar
    28    10    11   ar
    29    16    17    1
    30    17    18    1
    31    18    13    1
    32    33    24    1
    33    11     2    1
    34    31    26   ar
    35    11     6   ar
    36    19    21    1
    37    19    22    1
    38    33    34    1
@<TRIPOS>MOLECULE
*****
 34 38 0 0 0
SMALL
GASTEIGER

@<TRIPOS>ATOM
      1 N          63.5591   89.7222   13.3584 N.3     1  UNL1       -0.2679
      2 C          64.2361   90.8812   12.6887 C.3     1  UNL1        0.0978
      3 C          63.9814   91.1621   11.2375 C.3     1  UNL1        0.0224
      4 C          64.6583   92.3210   10.5678 C.3     1  UNL1        0.0065
      5 C          65.5900   93.1992   11.3493 C.3     1  UNL1        0.0277
      6 C          65.8446   92.9183   12.8006 C.ar    1  UNL1       -0.0073
      7 C          66.7763   93.7965   13.5823 C.ar    1  UNL1       -0.0015
      8 C          67.0310   93.5156   15.0335 C.ar    1  UNL1        0.0203
      9 C          66.3540   92.3566   15.7032 C.ar    1  UNL1        0.0985
     10 N          65.4224   91.4785   14.9216 N.ar    1  UNL1       -0.2471
     11 C          65.1677   91.7593   13.4703 C.ar    1  UNL1        0.0695
     12 C          62.0832   89.5153   13.1884 C.3     1  UNL1        0.0724
     13 C          60.3505   88.9438    9.0748 C.3     1  UNL1        0.0155
     14 C          61.4049   88.0051    9.5816 C.3     1  UNL1        0.0014
     15 C          61.9825   88.1956   10.9527 C.3     1  UNL1        0.0014
     16 C          61.5057   89.3248   11.8172 C.3     1  UNL1        0.0160
     17 C          60.4512   90.2637   11.3105 C.3     1  UNL1        0.0014
     18 C          59.8736   90.0732    9.9393 C.3     1  UNL1        0.0014
     19 N          58.6616   87.7692    7.4881 N.3     1  UNL1       -0.3211
     20 C          59.7729   88.7533    7.7037 C.3     1  UNL1        0.0651
     21 H          58.3934   87.7694    6.5039 H       1  UNL1        0.1189
     22 H          57.8586   88.0326    8.0593 H       1  UNL1        0.1189
     23 C          64.3580   88.7701   14.1981 C.3     1  UNL1        0.0886
     24 C          63.9395   87.3338   14.3075 C.3     1  UNL1        0.0748
     25 C          63.7198   86.5201   13.0667 C.3     1  UNL1        0.0432
     26 C          63.3013   85.0837   13.1760 C.ar    1  UNL1       -0.0234
     27 C          63.0816   84.2701   11.9353 C.ar    1  UNL1       -0.0045
     28 C          62.6631   82.8338   12.0447 C.ar    1  UNL1       -0.0003
     29 C          62.4644   82.2112   13.3948 C.ar    1  UNL1       -0.0003
     30 C          62.6842   83.0249   14.6356 C.ar    1  UNL1       -0.0032
     31 C          63.1026   84.4612   14.5262 C.ar    1  UNL1       -0.0103
     32 C          63.3224   85.2749   15.7670 C.3     1  UNL1        0.0953
     33 N          63.7408   86.7112   15.6576 N.3     1  UNL1       -0.2934
     34 H          64.6268   86.7985   16.1554 H       1  UNL1        0.1236
@<TRIPOS>BOND
     1    19    20    1
     2    13    20    1
     3    13    14    1
     4    14    15    1
     5    15    16    1
     6    16    12    1
     7    12     1    1
     8     1    23    1
     9    24    23    1
    10    24    25    1
    11    25    26    1
    12    26    27   ar
    13    27    28   ar
    14    28    29   ar
    15    29    30   ar
    16    30    31   ar
    17    31    32    1
    18    32    33    1
    19     2     1    1
    20     2     3    1
    21     3     4    1
    22     4     5    1
    23     5     6    1
    24     6     7   ar
    25     7     8   ar
    26     8     9   ar
    27     9    10   ar
    28    10    11   ar
    29    16    17    1
    30    17    18    1
    31    18    13    1
    32    33    24    1
    33    11     2    1
    34    31    26   ar
    35    11     6   ar
    36    19    21    1
    37    19    22    1
    38    33    34    1
@<TRIPOS>MOLECULE
*****
 34 38 0 0 0
SMALL
GASTEIGER

@<TRIPOS>ATOM
      1 N          61.7373   87.1953   11.5510 N.3     1  UNL1       -0.2679
      2 C          62.3982   86.0137   10.9053 C.3     1  UNL1        0.0978
      3 C          62.6484   86.0097    9.4264 C.3     1  UNL1        0.0224
      4 C          63.3093   84.8281    8.7806 C.3     1  UNL1        0.0065
      5 C          63.7201   83.6504    9.6139 C.3     1  UNL1        0.0277
      6 C          63.4699   83.6544   11.0928 C.ar    1  UNL1       -0.0073
      7 C          63.8806   82.4767   11.9262 C.ar    1  UNL1       -0.0015
      8 C          63.6305   82.4806   13.4051 C.ar    1  UNL1        0.0203
      9 C          62.9696   83.6623   14.0508 C.ar    1  UNL1        0.0985
     10 N          62.5588   84.8399   13.2176 N.ar    1  UNL1       -0.2471
     11 C          62.8090   84.8360   11.7386 C.ar    1  UNL1        0.0695
     12 C          60.3245   87.5517   11.1950 C.3     1  UNL1        0.0724
     13 C          59.3857   89.2391    7.1303 C.3     1  UNL1        0.0155
     14 C          59.9462   90.1284    8.2003 C.3     1  UNL1        0.0014
     15 C          60.2591   89.5659    9.5552 C.3     1  UNL1        0.0014
     16 C          60.0116   88.1142    9.8401 C.3     1  UNL1        0.0160
     17 C          59.4510   87.2249    8.7700 C.3     1  UNL1        0.0014
     18 C          59.1381   87.7873    7.4152 C.3     1  UNL1        0.0014
     19 N          58.9694   91.2859    5.5852 N.3     1  UNL1       -0.3211
     20 C          59.0727   89.8016    5.7754 C.3     1  UNL1        0.0651
     21 H          58.7526   91.4894    4.6095 H       1  UNL1        0.1189
     22 H          59.8565   91.7233    5.8347 H       1  UNL1        0.1189
     23 C          62.4893   88.0205   12.5528 C.3     1  UNL1        0.0886
     24 C          63.1566   89.2943   12.1257 C.3     1  UNL1        0.0748
     25 C          64.0460   90.0322   13.0819 C.3     1  UNL1        0.0432
     26 C          64.7133   91.3059   12.6547 C.ar    1  UNL1       -0.0234
     27 C          65.6028   92.0438   13.6109 C.ar    1  UNL1       -0.0045
     28 C          66.2700   93.3175   13.1838 C.ar    1  UNL1       -0.0003
     29 C          66.0478   93.8533   11.8005 C.ar    1  UNL1       -0.0003
     30 C          65.1584   93.1154   10.8443 C.ar    1  UNL1       -0.0032
     31 C          64.4911   91.8417   11.2714 C.ar    1  UNL1       -0.0103
     32 C          63.6016   91.1037   10.3152 C.3     1  UNL1        0.0953
     33 N          62.9344   89.8301   10.7423 N.3     1  UNL1       -0.2934
     34 H          63.2404   89.1053   10.0932 H       1  UNL1        0.1236
@<TRIPOS>BOND
     1    19    20    1
     2    13    20    1
     3    13    14    1
     4    14    15    1
     5    15    16    1
     6    16    12    1
     7    12     1    1
     8     1    23    1
     9    24    23    1
    10    24    25    1
    11    25    26    1
    12    26    27   ar
    13    27    28   ar
    14    28    29   ar
    15    29    30   ar
    16    30    31   ar
    17    31    32    1
    18    32    33    1
    19     2     1    1
    20     2     3    1
    21     3     4    1
    22     4     5    1
    23     5     6    1
    24     6     7   ar
    25     7     8   ar
    26     8     9   ar
    27     9    10   ar
    28    10    11   ar
    29    16    17    1
    30    17    18    1
    31    18    13    1
    32    33    24    1
    33    11     2    1
    34    31    26   ar
    35    11     6   ar
    36    19    21    1
    37    19    22    1
    38    33    34    1
@<TRIPOS>MOLECULE
*****
 34 38 0 0 0
SMALL
GASTEIGER

@<TRIPOS>ATOM
      1 N          62.0070   87.5093   11.1832 N.3     1  UNL1       -0.2679
      2 C          61.0844   87.2387   10.0318 C.3     1  UNL1        0.0978
      3 C          59.7224   87.8660    9.9987 C.3     1  UNL1        0.0224
      4 C          58.7998   87.5954    8.8473 C.3     1  UNL1        0.0065
      5 C          59.2393   86.6974    7.7291 C.3     1  UNL1        0.0277
      6 C          60.6013   86.0700    7.7623 C.ar    1  UNL1       -0.0073
      7 C          61.0409   85.1720    6.6441 C.ar    1  UNL1       -0.0015
      8 C          62.4029   84.5446    6.6772 C.ar    1  UNL1        0.0203
      9 C          63.3255   84.8153    7.8285 C.ar    1  UNL1        0.0985
     10 N          62.8861   85.7133    8.9467 N.ar    1  UNL1       -0.2471
     11 C          61.5239   86.3407    8.9136 C.ar    1  UNL1        0.0695
     12 C          61.8023   88.7242   12.0387 C.3     1  UNL1        0.0724
     13 C          64.8619   92.0240   12.0300 C.3     1  UNL1        0.0155
     14 C          64.0928   91.7110   10.7808 C.3     1  UNL1        0.0014
     15 C          63.0730   90.6111   10.7837 C.3     1  UNL1        0.0014
     16 C          62.8222   89.8242   12.0358 C.3     1  UNL1        0.0160
     17 C          63.5913   90.1371   13.2851 C.3     1  UNL1        0.0014
     18 C          64.6112   91.2370   13.2821 C.3     1  UNL1        0.0014
     19 N          67.2064   92.9204   12.7010 N.3     1  UNL1       -0.3211
     20 C          65.8818   93.1239   12.0270 C.3     1  UNL1        0.0651
     21 H          67.7714   93.7638   12.6022 H       1  UNL1        0.1189
     22 H          67.6908   92.1340   12.2682 H       1  UNL1        0.1189
     23 C          63.1343   86.5651   11.4789 C.3     1  UNL1        0.0886
     24 C          62.8669   85.2840   12.2121 C.3     1  UNL1        0.0748
     25 C          63.0128   83.9700   11.5037 C.3     1  UNL1        0.0432
     26 C          62.7454   82.6889   12.2369 C.ar    1  UNL1       -0.0234
     27 C          62.8912   81.3748   11.5285 C.ar    1  UNL1       -0.0045
     28 C          62.6238   80.0939   12.2617 C.ar    1  UNL1       -0.0003
     29 C          62.2106   80.1270   13.7033 C.ar    1  UNL1       -0.0003
     30 C          62.0648   81.4411   14.4117 C.ar    1  UNL1       -0.0032
     31 C          62.3322   82.7221   13.6785 C.ar    1  UNL1       -0.0103
     32 C          62.1864   84.0362   14.3869 C.3     1  UNL1        0.0953
     33 N          62.4537   85.3172   13.6537 N.3     1  UNL1       -0.2934
     34 H          63.1961   85.7979   14.1618 H       1  UNL1        0.1236
@<TRIPOS>BOND
     1    19    20    1
     2    13    20    1
     3    13    14    1
     4    14    15    1
     5    15    16    1
     6    16    12    1
     7    12     1    1
     8     1    23    1
     9    24    23    1
    10    24    25    1
    11    25    26    1
    12    26    27   ar
    13    27    28   ar
    14    28    29   ar
    15    29    30   ar
    16    30    31   ar
    17    31    32    1
    18    32    33    1
    19     2     1    1
    20     2     3    1
    21     3     4    1
    22     4     5    1
    23     5     6    1
    24     6     7   ar
    25     7     8   ar
    26     8     9   ar
    27     9    10   ar
    28    10    11   ar
    29    16    17    1
    30    17    18    1
    31    18    13    1
    32    33    24    1
    33    11     2    1
    34    31    26   ar
    35    11     6   ar
    36    19    21    1
    37    19    22    1
    38    33    34    1
@<TRIPOS>MOLECULE
*****
 34 38 0 0 0
SMALL
GASTEIGER

@<TRIPOS>ATOM
      1 N          63.0798   85.3319   12.9096 N.3     1  UNL1       -0.2679
      2 C          63.3070   84.1121   12.0668 C.3     1  UNL1        0.0978
      3 C          63.9632   84.2398   10.7240 C.3     1  UNL1        0.0224
      4 C          64.1904   83.0200    9.8812 C.3     1  UNL1        0.0065
      5 C          63.7614   81.6724   10.3811 C.3     1  UNL1        0.0277
      6 C          63.1052   81.5447   11.7238 C.ar    1  UNL1       -0.0073
      7 C          62.6761   80.1970   12.2238 C.ar    1  UNL1       -0.0015
      8 C          62.0199   80.0693   13.5666 C.ar    1  UNL1        0.0203
      9 C          61.7927   81.2891   14.4094 C.ar    1  UNL1        0.0985
     10 N          62.2217   82.6367   13.9095 N.ar    1  UNL1       -0.2471
     11 C          62.8780   82.7645   12.5667 C.ar    1  UNL1        0.0695
     12 C          64.1932   85.8791   13.7526 C.3     1  UNL1        0.0724
     13 C          63.6186   89.7236   16.0197 C.3     1  UNL1        0.0155
     14 C          63.3192   88.4110   16.6810 C.3     1  UNL1        0.0014
     15 C          63.5107   87.1295   15.9253 C.3     1  UNL1        0.0014
     16 C          64.0017   87.1606   14.5083 C.3     1  UNL1        0.0160
     17 C          64.3012   88.4732   13.8470 C.3     1  UNL1        0.0014
     18 C          64.1096   89.7547   14.6026 C.3     1  UNL1        0.0014
     19 N          64.2709   92.2016   16.4490 N.3     1  UNL1       -0.3211
     20 C          63.4271   91.0051   16.7754 C.3     1  UNL1        0.0651
     21 H          64.0081   92.9786   17.0553 H       1  UNL1        0.1189
     22 H          64.1240   92.4656   15.4748 H       1  UNL1        0.1189
     23 C          61.7391   86.0046   12.9094 C.3     1  UNL1        0.0886
     24 C          61.3358   86.8730   11.7547 C.3     1  UNL1        0.0748
     25 C          60.7451   86.2553   10.5221 C.3     1  UNL1        0.0432
     26 C          60.3419   87.1238    9.3674 C.ar    1  UNL1       -0.0234
     27 C          59.7512   86.5060    8.1348 C.ar    1  UNL1       -0.0045
     28 C          59.3480   87.3745    6.9802 C.ar    1  UNL1       -0.0003
     29 C          59.5355   88.8607    7.0582 C.ar    1  UNL1       -0.0003
     30 C          60.1262   89.4784    8.2908 C.ar    1  UNL1       -0.0032
     31 C          60.5294   88.6100    9.4454 C.ar    1  UNL1       -0.0103
     32 C          61.1201   89.2277   10.6781 C.3     1  UNL1        0.0953
     33 N          61.5233   88.3592   11.8327 N.3     1  UNL1       -0.2934
     34 H          60.9929   88.6808   12.6424 H       1  UNL1        0.1236
@<TRIPOS>BOND
     1    19    20    1
     2    13    20    1
     3    13    14    1
     4    14    15    1
     5    15    16    1
     6    16    12    1
     7    12     1    1
     8     1    23    1
     9    24    23    1
    10    24    25    1
    11    25    26    1
    12    26    27   ar
    13    27    28   ar
    14    28    29   ar
    15    29    30   ar
    16    30    31   ar
    17    31    32    1
    18    32    33    1
    19     2     1    1
    20     2     3    1
    21     3     4    1
    22     4     5    1
    23     5     6    1
    24     6     7   ar
    25     7     8   ar
    26     8     9   ar
    27     9    10   ar
    28    10    11   ar
    29    16    17    1
    30    17    18    1
    31    18    13    1
    32    33    24    1
    33    11     2    1
    34    31    26   ar
    35    11     6   ar
    36    19    21    1
    37    19    22    1
    38    33    34    1
@<TRIPOS>MOLECULE
*****
 34 38 0 0 0
SMALL
GASTEIGER

@<TRIPOS>ATOM
      1 N          62.5473   86.5514   11.4276 N.3     1  UNL1       -0.2679
      2 C          62.3275   86.0713   10.0236 C.3     1  UNL1        0.0978
      3 C          63.2945   85.1091    9.4000 C.3     1  UNL1        0.0224
      4 C          63.0747   84.6289    7.9960 C.3     1  UNL1        0.0065
      5 C          61.8879   85.1111    7.2156 C.3     1  UNL1        0.0277
      6 C          60.9210   86.0733    7.8392 C.ar    1  UNL1       -0.0073
      7 C          59.7341   86.5555    7.0588 C.ar    1  UNL1       -0.0015
      8 C          58.7671   87.5178    7.6825 C.ar    1  UNL1        0.0203
      9 C          58.9869   87.9979    9.0864 C.ar    1  UNL1        0.0985
     10 N          60.1737   87.5157    9.8668 N.ar    1  UNL1       -0.2471
     11 C          61.1407   86.5534    9.2432 C.ar    1  UNL1        0.0695
     12 C          63.3578   85.7275   12.3837 C.3     1  UNL1        0.0724
     13 C          61.8403   81.7146   13.7418 C.3     1  UNL1        0.0155
     14 C          61.9141   82.8562   14.7121 C.3     1  UNL1        0.0014
     15 C          62.4199   84.1938   14.2594 C.3     1  UNL1        0.0014
     16 C          62.8519   84.3899   12.8364 C.3     1  UNL1        0.0160
     17 C          62.7781   83.2483   11.8661 C.3     1  UNL1        0.0014
     18 C          62.2723   81.9107   12.3188 C.3     1  UNL1        0.0014
     19 N          59.8667   80.1684   14.4230 N.3     1  UNL1       -0.3211
     20 C          61.3345   80.3770   14.1945 C.3     1  UNL1        0.0651
     21 H          59.7028   79.2081   14.7253 H       1  UNL1        0.1189
     22 H          59.3594   80.3429   13.5555 H       1  UNL1        0.1189
     23 C          61.9567   87.8554   11.8754 C.3     1  UNL1        0.0886
     24 C          62.8108   89.0875   11.9263 C.3     1  UNL1        0.0748
     25 C          63.6531   89.3668   13.1356 C.3     1  UNL1        0.0432
     26 C          64.5072   90.5989   13.1865 C.ar    1  UNL1       -0.0234
     27 C          65.3496   90.8781   14.3957 C.ar    1  UNL1       -0.0045
     28 C          66.2036   92.1101   14.4466 C.ar    1  UNL1       -0.0003
     29 C          66.2153   93.0630   13.2882 C.ar    1  UNL1       -0.0003
     30 C          65.3729   92.7838   12.0789 C.ar    1  UNL1       -0.0032
     31 C          64.5189   91.5517   12.0280 C.ar    1  UNL1       -0.0103
     32 C          63.6765   91.2724   10.8187 C.3     1  UNL1        0.0953
     33 N          62.8225   90.0404   10.7679 N.3     1  UNL1       -0.2934
     34 H          63.1225   89.5076    9.9514 H       1  UNL1        0.1236
@<TRIPOS>BOND
     1    19    20    1
     2    13    20    1
     3    13    14    1
     4    14    15    1
     5    15    16    1
     6    16    12    1
     7    12     1    1
     8     1    23    1
     9    24    23    1
    10    24    25    1
    11    25    26    1
    12    26    27   ar
    13    27    28   ar
    14    28    29   ar
    15    29    30   ar
    16    30    31   ar
    17    31    32    1
    18    32    33    1
    19     2     1    1
    20     2     3    1
    21     3     4    1
    22     4     5    1
    23     5     6    1
    24     6     7   ar
    25     7     8   ar
    26     8     9   ar
    27     9    10   ar
    28    10    11   ar
    29    16    17    1
    30    17    18    1
    31    18    13    1
    32    33    24    1
    33    11     2    1
    34    31    26   ar
    35    11     6   ar
    36    19    21    1
    37    19    22    1
    38    33    34    1
@<TRIPOS>MOLECULE
*****
 34 38 0 0 0
SMALL
GASTEIGER

@<TRIPOS>ATOM
      1 N          62.6709   87.3782   11.7056 N.3     1  UNL1       -0.2679
      2 C          62.2751   86.7967   10.3808 C.3     1  UNL1        0.0978
      3 C          62.8776   85.5027    9.9196 C.3     1  UNL1        0.0224
      4 C          62.4818   84.9211    8.5948 C.3     1  UNL1        0.0065
      5 C          61.4835   85.6335    7.7312 C.3     1  UNL1        0.0277
      6 C          60.8811   86.9275    8.1923 C.ar    1  UNL1       -0.0073
      7 C          59.8828   87.6399    7.3286 C.ar    1  UNL1       -0.0015
      8 C          59.2804   88.9339    7.7897 C.ar    1  UNL1        0.0203
      9 C          59.6762   89.5155    9.1145 C.ar    1  UNL1        0.0985
     10 N          60.6744   88.8031    9.9782 N.ar    1  UNL1       -0.2471
     11 C          61.2769   87.5091    9.5171 C.ar    1  UNL1        0.0695
     12 C          62.2041   88.7504   12.0919 C.3     1  UNL1        0.0724
     13 C          65.1999   92.0406   12.7621 C.3     1  UNL1        0.0155
     14 C          64.5123   91.9112   11.4353 C.3     1  UNL1        0.0014
     15 C          63.5137   90.8145   11.2119 C.3     1  UNL1        0.0014
     16 C          63.2027   89.8471   12.3153 C.3     1  UNL1        0.0160
     17 C          63.8903   89.9765   13.6421 C.3     1  UNL1        0.0014
     18 C          64.8889   91.0733   13.8655 C.3     1  UNL1        0.0014
     19 N          66.2398   93.8577   14.3006 N.3     1  UNL1       -0.3211
     20 C          66.1985   93.1374   12.9855 C.3     1  UNL1        0.0651
     21 H          66.9731   94.5663   14.2773 H       1  UNL1        0.1189
     22 H          66.4349   93.1909   15.0475 H       1  UNL1        0.1189
     23 C          63.5335   86.5877   12.6441 C.3     1  UNL1        0.0886
     24 C          63.1142   85.2116   13.0691 C.3     1  UNL1        0.0748
     25 C          63.3258   84.0456   12.1496 C.3     1  UNL1        0.0432
     26 C          62.9065   82.6694   12.5746 C.ar    1  UNL1       -0.0234
     27 C          63.1182   81.5034   11.6550 C.ar    1  UNL1       -0.0045
     28 C          62.6988   80.1274   12.0800 C.ar    1  UNL1       -0.0003
     29 C          62.0679   79.9174   13.4246 C.ar    1  UNL1       -0.0003
     30 C          61.8562   81.0834   14.3441 C.ar    1  UNL1       -0.0032
     31 C          62.2755   82.4594   13.9191 C.ar    1  UNL1       -0.0103
     32 C          62.0639   83.6255   14.8386 C.3     1  UNL1        0.0953
     33 N          62.4832   85.0016   14.4136 N.3     1  UNL1       -0.2934
     34 H          63.1528   85.3330   15.1081 H       1  UNL1        0.1236
@<TRIPOS>BOND
     1    19    20    1
     2    13    20    1
     3    13    14    1
     4    14    15    1
     5    15    16    1
     6    16    12    1
     7    12     1    1
     8     1    23    1
     9    24    23    1
    10    24    25    1
    11    25    26    1
    12    26    27   ar
    13    27    28   ar
    14    28    29   ar
    15    29    30   ar
    16    30    31   ar
    17    31    32    1
    18    32    33    1
    19     2     1    1
    20     2     3    1
    21     3     4    1
    22     4     5    1
    23     5     6    1
    24     6     7   ar
    25     7     8   ar
    26     8     9   ar
    27     9    10   ar
    28    10    11   ar
    29    16    17    1
    30    17    18    1
    31    18    13    1
    32    33    24    1
    33    11     2    1
    34    31    26   ar
    35    11     6   ar
    36    19    21    1
    37    19    22    1
    38    33    34    1
@<TRIPOS>MOLECULE
*****
 34 38 0 0 0
SMALL
GASTEIGER

@<TRIPOS>ATOM
      1 N          61.9651   87.4297   11.2383 N.3     1  UNL1       -0.2679
      2 C          61.0738   87.1685   10.0605 C.3     1  UNL1        0.0978
      3 C          59.7103   87.7908    9.9992 C.3     1  UNL1        0.0224
      4 C          58.8190   87.5296    8.8214 C.3     1  UNL1        0.0065
      5 C          59.2911   86.6462    7.7048 C.3     1  UNL1        0.0277
      6 C          60.6545   86.0240    7.7661 C.ar    1  UNL1       -0.0073
      7 C          61.1267   85.1406    6.6495 C.ar    1  UNL1       -0.0015
      8 C          62.4902   84.5184    6.7108 C.ar    1  UNL1        0.0203
      9 C          63.3815   84.7795    7.8887 C.ar    1  UNL1        0.0985
     10 N          62.9094   85.6629    9.0052 N.ar    1  UNL1       -0.2471
     11 C          61.5459   86.2852    8.9439 C.ar    1  UNL1        0.0695
     12 C          63.0822   86.4812   11.5584 C.3     1  UNL1        0.0724
     13 C          62.1996   82.5782   13.6169 C.3     1  UNL1        0.0155
     14 C          62.4004   82.6137   12.1309 C.3     1  UNL1        0.0014
     15 C          62.6946   83.9147   11.4447 C.3     1  UNL1        0.0014
     16 C          62.7880   85.1802   12.2446 C.3     1  UNL1        0.0160
     17 C          62.5872   85.1447   13.7307 C.3     1  UNL1        0.0014
     18 C          62.2930   83.8437   14.4169 C.3     1  UNL1        0.0014
     19 N          60.5111   80.7241   14.2962 N.3     1  UNL1       -0.3211
     20 C          61.9055   81.2772   14.3031 C.3     1  UNL1        0.0651
     21 H          60.4934   79.8403   14.8051 H       1  UNL1        0.1189
     22 H          60.2120   80.5681   13.3336 H       1  UNL1        0.1189
     23 C          61.7394   88.6393   12.0961 C.3     1  UNL1        0.0886
     24 C          62.7754   89.7227   12.1525 C.3     1  UNL1        0.0748
     25 C          63.5583   89.9469   13.4122 C.3     1  UNL1        0.0432
     26 C          64.5942   91.0303   13.4686 C.ar    1  UNL1       -0.0234
     27 C          65.3771   91.2546   14.7283 C.ar    1  UNL1       -0.0045
     28 C          66.4130   92.3379   14.7846 C.ar    1  UNL1       -0.0003
     29 C          66.6661   93.1969   13.5813 C.ar    1  UNL1       -0.0003
     30 C          65.8833   92.9727   12.3217 C.ar    1  UNL1       -0.0032
     31 C          64.8473   91.8894   12.2653 C.ar    1  UNL1       -0.0103
     32 C          64.0644   91.6651   11.0056 C.3     1  UNL1        0.0953
     33 N          63.0285   90.5818   10.9492 N.3     1  UNL1       -0.2934
     34 H          63.2990   89.9548   10.1915 H       1  UNL1        0.1236
@<TRIPOS>BOND
     1    19    20    1
     2    13    20    1
     3    13    14    1
     4    14    15    1
     5    15    16    1
     6    16    12    1
     7    12     1    1
     8     1    23    1
     9    24    23    1
    10    24    25    1
    11    25    26    1
    12    26    27   ar
    13    27    28   ar
    14    28    29   ar
    15    29    30   ar
    16    30    31   ar
    17    31    32    1
    18    32    33    1
    19     2     1    1
    20     2     3    1
    21     3     4    1
    22     4     5    1
    23     5     6    1
    24     6     7   ar
    25     7     8   ar
    26     8     9   ar
    27     9    10   ar
    28    10    11   ar
    29    16    17    1
    30    17    18    1
    31    18    13    1
    32    33    24    1
    33    11     2    1
    34    31    26   ar
    35    11     6   ar
    36    19    21    1
    37    19    22    1
    38    33    34    1
@<TRIPOS>MOLECULE
*****
 34 38 0 0 0
SMALL
GASTEIGER

@<TRIPOS>ATOM
      1 N          63.6173   90.2681   12.4069 N.3     1  UNL1       -0.2679
      2 C          64.5681   91.2140   13.0788 C.3     1  UNL1        0.0978
      3 C          64.9511   90.9996   14.5131 C.3     1  UNL1        0.0224
      4 C          65.9018   91.9454   15.1850 C.3     1  UNL1        0.0065
      5 C          66.4695   93.1057   14.4226 C.3     1  UNL1        0.0277
      6 C          66.0865   93.3202   12.9883 C.ar    1  UNL1       -0.0073
      7 C          66.6542   94.4806   12.2258 C.ar    1  UNL1       -0.0015
      8 C          66.2712   94.6950   10.7915 C.ar    1  UNL1        0.0203
      9 C          65.3205   93.7492   10.1196 C.ar    1  UNL1        0.0985
     10 N          64.7528   92.5888   10.8820 N.ar    1  UNL1       -0.2471
     11 C          65.1358   92.3743   12.3164 C.ar    1  UNL1        0.0695
     12 C          63.4846   90.2735   10.9128 C.3     1  UNL1        0.0724
     13 C          60.1760   87.9478    8.9395 C.3     1  UNL1        0.0155
     14 C          61.5266   87.3217    9.1231 C.3     1  UNL1        0.0014
     15 C          62.6295   88.0969    9.7809 C.3     1  UNL1        0.0014
     16 C          62.3817   89.4982   10.2551 C.3     1  UNL1        0.0160
     17 C          61.0310   90.1244   10.0715 C.3     1  UNL1        0.0014
     18 C          59.9281   89.3492    9.4137 C.3     1  UNL1        0.0014
     19 N          59.3986   85.9839    7.4265 N.3     1  UNL1       -0.3211
     20 C          59.0731   87.1726    8.2817 C.3     1  UNL1        0.0651
     21 H          58.5354   85.5806    7.0623 H       1  UNL1        0.1189
     22 H          59.8900   85.2869    7.9860 H       1  UNL1        0.1189
     23 C          62.7993   89.3169   13.2291 C.3     1  UNL1        0.0886
     24 C          63.2618   87.9030   13.4217 C.3     1  UNL1        0.0748
     25 C          62.8087   86.8303   12.4762 C.3     1  UNL1        0.0432
     26 C          63.2711   85.4164   12.6688 C.ar    1  UNL1       -0.0234
     27 C          62.8181   84.3437   11.7233 C.ar    1  UNL1       -0.0045
     28 C          63.2805   82.9299   11.9160 C.ar    1  UNL1       -0.0003
     29 C          64.1960   82.5887   13.0541 C.ar    1  UNL1       -0.0003
     30 C          64.6491   83.6614   13.9997 C.ar    1  UNL1       -0.0032
     31 C          64.1866   85.0752   13.8070 C.ar    1  UNL1       -0.0103
     32 C          64.6397   86.1480   14.7526 C.3     1  UNL1        0.0953
     33 N          64.1773   87.5618   14.5599 N.3     1  UNL1       -0.2934
     34 H          65.0148   88.1326   14.4453 H       1  UNL1        0.1236
@<TRIPOS>BOND
     1    19    20    1
     2    13    20    1
     3    13    14    1
     4    14    15    1
     5    15    16    1
     6    16    12    1
     7    12     1    1
     8     1    23    1
     9    24    23    1
    10    24    25    1
    11    25    26    1
    12    26    27   ar
    13    27    28   ar
    14    28    29   ar
    15    29    30   ar
    16    30    31   ar
    17    31    32    1
    18    32    33    1
    19     2     1    1
    20     2     3    1
    21     3     4    1
    22     4     5    1
    23     5     6    1
    24     6     7   ar
    25     7     8   ar
    26     8     9   ar
    27     9    10   ar
    28    10    11   ar
    29    16    17    1
    30    17    18    1
    31    18    13    1
    32    33    24    1
    33    11     2    1
    34    31    26   ar
    35    11     6   ar
    36    19    21    1
    37    19    22    1
    38    33    34    1
