@<TRIPOS>MOLECULE
*****
 33 37 0 0 0
SMALL
GASTEIGER

@<TRIPOS>ATOM
      1 C          64.6156   90.9101   13.1624 C.2     1  UNL1        0.2354
      2 O          65.4171   90.4796   14.3549 O.2     1  UNL1       -0.2741
      3 N          63.7785   89.9104   12.4208 N.am    1  UNL1       -0.2582
      4 C          62.9286   90.1919   11.2172 C.3     1  UNL1        0.1030
      5 C          62.2692   88.9092   10.8053 C.3     1  UNL1        0.0518
      6 C          62.7114   87.8350   11.7542 C.ar    1  UNL1        0.0207
      7 C          63.6442   88.4538   12.7526 C.ar    1  UNL1        0.0520
      8 C          64.2509   87.6109   13.8350 C.ar    1  UNL1        0.0147
      9 C          63.9247   86.1491   13.9189 C.ar    1  UNL1        0.0035
     10 C          62.9919   85.5304   12.9204 C.ar    1  UNL1        0.0289
     11 C          62.3852   86.3733   11.8380 C.ar    1  UNL1        0.1374
     12 F          61.4524   85.7545   10.8395 F       1  UNL1       -0.2045
     13 C          62.6657   84.0687   13.0043 C.ar    1  UNL1        0.0250
     14 C          61.9448   83.3894   14.1307 C.ar    1  UNL1        0.0772
     15 N          61.8367   81.9305   13.7990 N.ar    1  UNL1       -0.3094
     16 C          61.1883   80.8787   14.6495 C.3     1  UNL1        0.1319
     17 C          62.4909   81.7082   12.4676 C.ar    1  UNL1        0.1483
     18 N          62.6862   80.4732   11.6390 N.ar    1  UNL1       -0.2065
     19 C          63.3938   80.5595   10.3192 C.ar    1  UNL1        0.2014
     20 N          63.9062   81.8810    9.8280 N.ar    1  UNL1       -0.2094
     21 C          63.7108   83.1161   10.6567 C.ar    1  UNL1        0.1300
     22 N          64.2232   84.4376   10.1655 N.pl3   1  UNL1       -0.3425
     23 C          63.0032   83.0297   11.9764 C.ar    1  UNL1        0.0669
     24 H          64.6876   84.4943    9.2993 H       1  UNL1        0.1437
     25 H          64.0950   85.2482   10.7093 H       1  UNL1        0.1437
     26 C          64.6512   92.3402   12.7114 C.3     1  UNL1        0.1312
     27 C          66.3601   95.8704    9.3029 C.3     1  UNL1        0.0521
     28 C          66.5162   94.5462    9.9901 C.ar    1  UNL1        0.0590
     29 C          67.6829   93.6630    9.6604 C.ar    1  UNL1        0.0147
     30 C          67.8390   92.3389   10.3476 C.ar    1  UNL1        0.0024
     31 C          66.8285   91.8979   11.3646 C.ar    1  UNL1        0.0152
     32 C          65.6618   92.7811   11.6943 C.ar    1  UNL1        0.0678
     33 N          65.5057   94.1053   11.0071 N.ar    1  UNL1       -0.2535
@<TRIPOS>BOND
     1    27    28    1
     2    28    29   ar
     3    29    30   ar
     4    30    31   ar
     5    31    32   ar
     6    32    26    1
     7    26     1    1
     8     1     2    2
     9     1     3   am
    10     3     4    1
    11     4     5    1
    12     5     6    1
    13     6     7   ar
    14     7     8   ar
    15     8     9   ar
    16     9    10   ar
    17    10    13    1
    18    13    14   ar
    19    14    15   ar
    20    15    16    1
    21    15    17   ar
    22    17    18   ar
    23    18    19   ar
    24    19    20   ar
    25    20    21   ar
    26    21    22    1
    27    21    23   ar
    28    10    11   ar
    29    11    12    1
    30    32    33   ar
    31    33    28   ar
    32     7     3    1
    33    23    13   ar
    34    11     6   ar
    35    23    17   ar
    36    22    24    1
    37    22    25    1
@<TRIPOS>MOLECULE
*****
 33 37 0 0 0
SMALL
GASTEIGER

@<TRIPOS>ATOM
      1 C          62.9743   90.1324   12.4827 C.2     1  UNL1        0.2354
      2 O          62.1376   90.0849   11.2387 O.2     1  UNL1       -0.2741
      3 N          63.4778   88.8599   13.0970 N.am    1  UNL1       -0.2582
      4 C          64.3202   88.7507   14.3333 C.3     1  UNL1        0.1030
      5 C          64.5902   87.2965   14.5832 C.3     1  UNL1        0.0518
      6 C          63.9147   86.5070   13.5014 C.ar    1  UNL1        0.0207
      7 C          63.2271   87.4732   12.5829 C.ar    1  UNL1        0.0520
      8 C          62.4617   86.9656   11.3970 C.ar    1  UNL1        0.0147
      9 C          62.3837   85.4916   11.1296 C.ar    1  UNL1        0.0035
     10 C          63.0713   84.5254   12.0481 C.ar    1  UNL1        0.0289
     11 C          63.8368   85.0331   13.2340 C.ar    1  UNL1        0.1374
     12 F          64.5243   84.0669   14.1526 F       1  UNL1       -0.2045
     13 C          62.9934   83.0515   11.7808 C.ar    1  UNL1        0.0250
     14 C          63.4175   82.3607   10.5186 C.ar    1  UNL1        0.0772
     15 N          63.1639   80.8919   10.6864 N.ar    1  UNL1       -0.3094
     16 C          63.4423   79.8270    9.6673 C.3     1  UNL1        0.1319
     17 C          62.5830   80.6749   12.0523 C.ar    1  UNL1        0.1483
     18 N          62.1365   79.4343   12.7676 N.ar    1  UNL1       -0.2065
     19 C          61.5845   79.5284   14.1591 C.ar    1  UNL1        0.2014
     20 N          61.4791   80.8632   14.8355 N.ar    1  UNL1       -0.2094
     21 C          61.9257   82.1038   14.1202 C.ar    1  UNL1        0.1300
     22 N          61.8203   83.4385   14.7965 N.pl3   1  UNL1       -0.3425
     23 C          62.4777   82.0096   12.7286 C.ar    1  UNL1        0.0669
     24 H          61.4580   83.5003   15.7098 H       1  UNL1        0.1437
     25 H          62.1134   84.2527   14.3270 H       1  UNL1        0.1437
     26 C          63.3076   91.4524   13.1124 C.3     1  UNL1        0.1312
     27 C          67.3578   92.7210   16.1101 C.3     1  UNL1        0.0521
     28 C          66.7646   92.5121   14.7484 C.ar    1  UNL1        0.0590
     29 C          67.6032   92.7287   13.5237 C.ar    1  UNL1        0.0147
     30 C          67.0099   92.5198   12.1619 C.ar    1  UNL1        0.0024
     31 C          65.5781   92.0944   12.0248 C.ar    1  UNL1        0.0152
     32 C          64.7395   91.8778   13.2495 C.ar    1  UNL1        0.0678
     33 N          65.3328   92.0867   14.6112 N.ar    1  UNL1       -0.2535
@<TRIPOS>BOND
     1    27    28    1
     2    28    29   ar
     3    29    30   ar
     4    30    31   ar
     5    31    32   ar
     6    32    26    1
     7    26     1    1
     8     1     2    2
     9     1     3   am
    10     3     4    1
    11     4     5    1
    12     5     6    1
    13     6     7   ar
    14     7     8   ar
    15     8     9   ar
    16     9    10   ar
    17    10    13    1
    18    13    14   ar
    19    14    15   ar
    20    15    16    1
    21    15    17   ar
    22    17    18   ar
    23    18    19   ar
    24    19    20   ar
    25    20    21   ar
    26    21    22    1
    27    21    23   ar
    28    10    11   ar
    29    11    12    1
    30    32    33   ar
    31    33    28   ar
    32     7     3    1
    33    23    13   ar
    34    11     6   ar
    35    23    17   ar
    36    22    24    1
    37    22    25    1
@<TRIPOS>MOLECULE
*****
 33 37 0 0 0
SMALL
GASTEIGER

@<TRIPOS>ATOM
      1 C          63.4733   90.4054   12.1147 C.2     1  UNL1        0.2354
      2 O          62.7056   90.1943   10.8435 O.2     1  UNL1       -0.2741
      3 N          63.7601   89.2437   13.0193 N.am    1  UNL1       -0.2582
      4 C          64.5119   89.3007   14.3161 C.3     1  UNL1        0.1030
      5 C          64.5619   87.9133   14.8841 C.3     1  UNL1        0.0518
      6 C          63.8411   86.9989   13.9385 C.ar    1  UNL1        0.0207
      7 C          63.3455   87.8212   12.7859 C.ar    1  UNL1        0.0520
      8 C          62.5808   87.1683   11.6729 C.ar    1  UNL1        0.0147
      9 C          62.3117   85.6931   11.7123 C.ar    1  UNL1        0.0035
     10 C          62.8072   84.8709   12.8648 C.ar    1  UNL1        0.0289
     11 C          63.5720   85.5238   13.9779 C.ar    1  UNL1        0.1374
     12 F          64.0675   84.7016   15.1305 F       1  UNL1       -0.2045
     13 C          62.5381   83.3958   12.9043 C.ar    1  UNL1        0.0250
     14 C          61.8513   82.6542   14.0126 C.ar    1  UNL1        0.0772
     15 N          61.7972   81.2034   13.6357 N.ar    1  UNL1       -0.3094
     16 C          61.1954   80.1011   14.4560 C.3     1  UNL1        0.1319
     17 C          62.4506   81.0483   12.2944 C.ar    1  UNL1        0.1483
     18 N          62.6877   79.8483   11.4262 N.ar    1  UNL1       -0.2065
     19 C          63.3828   80.0032   10.1060 C.ar    1  UNL1        0.2014
     20 N          63.8407   81.3583    9.6540 N.ar    1  UNL1       -0.2094
     21 C          63.6035   82.5583   10.5222 C.ar    1  UNL1        0.1300
     22 N          64.0613   83.9133   10.0702 N.pl3   1  UNL1       -0.3425
     23 C          62.9084   82.4033   11.8424 C.ar    1  UNL1        0.0669
     24 H          64.5175   84.0151    9.2037 H       1  UNL1        0.1437
     25 H          63.9057   84.7009   10.6400 H       1  UNL1        0.1437
     26 C          63.9541   91.7781   12.4814 C.3     1  UNL1        0.1312
     27 C          67.2661   92.8349   16.3432 C.3     1  UNL1        0.0521
     28 C          67.0141   92.5035   14.9021 C.ar    1  UNL1        0.0590
     29 C          68.1661   92.3692   13.9509 C.ar    1  UNL1        0.0147
     30 C          67.9141   92.0378   12.5098 C.ar    1  UNL1        0.0024
     31 C          66.5101   91.8408   12.0199 C.ar    1  UNL1        0.0152
     32 C          65.3581   91.9751   12.9712 C.ar    1  UNL1        0.0678
     33 N          65.6101   92.3065   14.4122 N.ar    1  UNL1       -0.2535
@<TRIPOS>BOND
     1    27    28    1
     2    28    29   ar
     3    29    30   ar
     4    30    31   ar
     5    31    32   ar
     6    32    26    1
     7    26     1    1
     8     1     2    2
     9     1     3   am
    10     3     4    1
    11     4     5    1
    12     5     6    1
    13     6     7   ar
    14     7     8   ar
    15     8     9   ar
    16     9    10   ar
    17    10    13    1
    18    13    14   ar
    19    14    15   ar
    20    15    16    1
    21    15    17   ar
    22    17    18   ar
    23    18    19   ar
    24    19    20   ar
    25    20    21   ar
    26    21    22    1
    27    21    23   ar
    28    10    11   ar
    29    11    12    1
    30    32    33   ar
    31    33    28   ar
    32     7     3    1
    33    23    13   ar
    34    11     6   ar
    35    23    17   ar
    36    22    24    1
    37    22    25    1
@<TRIPOS>MOLECULE
*****
 33 37 0 0 0
SMALL
GASTEIGER

@<TRIPOS>ATOM
      1 C          60.7854   92.8098    2.2377 C.2     1  UNL1        0.2354
      2 O          59.5022   92.5008    1.5250 O.2     1  UNL1       -0.2741
      3 N          61.9574   93.3488    1.4724 N.am    1  UNL1       -0.2582
      4 C          63.2976   93.7025    2.0458 C.3     1  UNL1        0.1030
      5 C          64.1635   94.2010    0.9271 C.3     1  UNL1        0.0518
      6 C          63.3585   94.1554   -0.3378 C.ar    1  UNL1        0.0207
      7 C          61.9951   93.6287   -0.0008 C.ar    1  UNL1        0.0520
      8 C          60.9640   93.4720   -1.0789 C.ar    1  UNL1        0.0147
      9 C          61.2964   93.8420   -2.4941 C.ar    1  UNL1        0.0035
     10 C          62.6598   94.3687   -2.8311 C.ar    1  UNL1        0.0289
     11 C          63.6909   94.5254   -1.7529 C.ar    1  UNL1        0.1374
     12 F          65.0544   95.0521   -2.0900 F       1  UNL1       -0.2045
     13 C          62.9922   94.7388   -4.2462 C.ar    1  UNL1        0.0250
     14 C          62.4067   95.8833   -5.0190 C.ar    1  UNL1        0.0772
     15 N          63.0211   95.8812   -6.3874 N.ar    1  UNL1       -0.3094
     16 C          62.7227   96.8541   -7.4894 C.3     1  UNL1        0.1319
     17 C          63.9863   94.7352   -6.4603 C.ar    1  UNL1        0.1483
     18 N          64.8791   94.2433   -7.5607 N.ar    1  UNL1       -0.2065
     19 C          65.7540   93.0456   -7.3379 C.ar    1  UNL1        0.2014
     20 N          65.7362   92.3395   -6.0146 N.ar    1  UNL1       -0.2094
     21 C          64.8433   92.8313   -4.9141 C.ar    1  UNL1        0.1300
     22 N          64.8254   92.1253   -3.5907 N.pl3   1  UNL1       -0.3425
     23 C          63.9684   94.0292   -5.1370 C.ar    1  UNL1        0.0669
     24 H          65.3997   91.3391   -3.4444 H       1  UNL1        0.1437
     25 H          64.2394   92.4481   -2.8685 H       1  UNL1        0.1437
     26 C          60.8964   92.5798    3.7158 C.3     1  UNL1        0.1312
     27 C          59.4590   88.8608    7.0479 C.3     1  UNL1        0.0521
     28 C          59.0987   89.9728    6.1079 C.ar    1  UNL1        0.0590
     29 C          57.6596   90.3373    5.8938 C.ar    1  UNL1        0.0147
     30 C          57.2993   91.4493    4.9537 C.ar    1  UNL1        0.0024
     31 C          58.3782   92.1968    4.2277 C.ar    1  UNL1        0.0152
     32 C          59.8174   91.8323    4.4418 C.ar    1  UNL1        0.0678
     33 N          60.1777   90.7203    5.3818 N.ar    1  UNL1       -0.2535
@<TRIPOS>BOND
     1    27    28    1
     2    28    29   ar
     3    29    30   ar
     4    30    31   ar
     5    31    32   ar
     6    32    26    1
     7    26     1    1
     8     1     2    2
     9     1     3   am
    10     3     4    1
    11     4     5    1
    12     5     6    1
    13     6     7   ar
    14     7     8   ar
    15     8     9   ar
    16     9    10   ar
    17    10    13    1
    18    13    14   ar
    19    14    15   ar
    20    15    16    1
    21    15    17   ar
    22    17    18   ar
    23    18    19   ar
    24    19    20   ar
    25    20    21   ar
    26    21    22    1
    27    21    23   ar
    28    10    11   ar
    29    11    12    1
    30    32    33   ar
    31    33    28   ar
    32     7     3    1
    33    23    13   ar
    34    11     6   ar
    35    23    17   ar
    36    22    24    1
    37    22    25    1
@<TRIPOS>MOLECULE
*****
 33 37 0 0 0
SMALL
GASTEIGER

@<TRIPOS>ATOM
      1 C          63.3816   90.5563   11.7010 C.2     1  UNL1        0.2354
      2 O          62.5962   90.2753   10.4543 O.2     1  UNL1       -0.2741
      3 N          63.6912   89.4443   12.6590 N.am    1  UNL1       -0.2582
      4 C          64.4623   89.5726   13.9392 C.3     1  UNL1        0.1030
      5 C          64.5318   88.2164   14.5763 C.3     1  UNL1        0.0518
      6 C          63.8037   87.2499   13.6898 C.ar    1  UNL1        0.0207
      7 C          63.2842   88.0089   12.5048 C.ar    1  UNL1        0.0520
      8 C          62.5076   87.2948   11.4385 C.ar    1  UNL1        0.0147
      9 C          62.2505   85.8217   11.5572 C.ar    1  UNL1        0.0035
     10 C          62.7700   85.0628   12.7422 C.ar    1  UNL1        0.0289
     11 C          63.5466   85.7769   13.8085 C.ar    1  UNL1        0.1374
     12 F          64.0661   85.0180   14.9935 F       1  UNL1       -0.2045
     13 C          62.5130   83.5898   12.8609 C.ar    1  UNL1        0.0250
     14 C          61.8380   82.9024   14.0106 C.ar    1  UNL1        0.0772
     15 N          61.7936   81.4333   13.7110 N.ar    1  UNL1       -0.3094
     16 C          61.2050   80.3712   14.5916 C.3     1  UNL1        0.1319
     17 C          62.4412   81.2127   12.3760 C.ar    1  UNL1        0.1483
     18 N          62.6835   79.9705   11.5710 N.ar    1  UNL1       -0.2065
     19 C          63.3703   80.0609   10.2406 C.ar    1  UNL1        0.2014
     20 N          63.8149   81.3937    9.7151 N.ar    1  UNL1       -0.2094
     21 C          63.5726   82.6361   10.5202 C.ar    1  UNL1        0.1300
     22 N          64.0172   83.9689    9.9949 N.pl3   1  UNL1       -0.3425
     23 C          62.8858   82.5455   11.8507 C.ar    1  UNL1        0.0669
     24 H          64.4680   84.0283    9.1217 H       1  UNL1        0.1437
     25 H          63.8582   84.7842   10.5232 H       1  UNL1        0.1437
     26 C          63.8573   91.9492   11.9898 C.3     1  UNL1        0.1312
     27 C          66.8192   94.6803    8.7083 C.3     1  UNL1        0.0521
     28 C          66.6940   93.7561    9.8831 C.ar    1  UNL1        0.0590
     29 C          67.9246   93.2732   10.5920 C.ar    1  UNL1        0.0147
     30 C          67.7994   92.3490   11.7668 C.ar    1  UNL1        0.0024
     31 C          66.4436   91.9077   12.2328 C.ar    1  UNL1        0.0152
     32 C          65.2131   92.3905   11.5239 C.ar    1  UNL1        0.0678
     33 N          65.3383   93.3147   10.3491 N.ar    1  UNL1       -0.2535
@<TRIPOS>BOND
     1    27    28    1
     2    28    29   ar
     3    29    30   ar
     4    30    31   ar
     5    31    32   ar
     6    32    26    1
     7    26     1    1
     8     1     2    2
     9     1     3   am
    10     3     4    1
    11     4     5    1
    12     5     6    1
    13     6     7   ar
    14     7     8   ar
    15     8     9   ar
    16     9    10   ar
    17    10    13    1
    18    13    14   ar
    19    14    15   ar
    20    15    16    1
    21    15    17   ar
    22    17    18   ar
    23    18    19   ar
    24    19    20   ar
    25    20    21   ar
    26    21    22    1
    27    21    23   ar
    28    10    11   ar
    29    11    12    1
    30    32    33   ar
    31    33    28   ar
    32     7     3    1
    33    23    13   ar
    34    11     6   ar
    35    23    17   ar
    36    22    24    1
    37    22    25    1
@<TRIPOS>MOLECULE
*****
 33 37 0 0 0
SMALL
GASTEIGER

@<TRIPOS>ATOM
      1 C          63.7544   89.7336   13.3835 C.2     1  UNL1        0.2354
      2 O          64.5161   89.1808   14.5514 O.2     1  UNL1       -0.2741
      3 N          63.1514   88.8032   12.3731 N.am    1  UNL1       -0.2582
      4 C          62.3670   89.2074   11.1601 C.3     1  UNL1        0.1030
      5 C          61.9578   87.9593   10.4358 C.3     1  UNL1        0.0518
      6 C          62.4892   86.7838   11.2011 C.ar    1  UNL1        0.0207
      7 C          63.2269   87.3054   12.3985 C.ar    1  UNL1        0.0520
      8 C          63.8721   86.3490   13.3572 C.ar    1  UNL1        0.0147
      9 C          63.7796   84.8710   13.1185 C.ar    1  UNL1        0.0035
     10 C          63.0419   84.3494   11.9211 C.ar    1  UNL1        0.0289
     11 C          62.3967   85.3058   10.9624 C.ar    1  UNL1        0.1374
     12 F          61.6590   84.7842    9.7650 F       1  UNL1       -0.2045
     13 C          62.9494   82.8714   11.6824 C.ar    1  UNL1        0.0250
     14 C          63.2717   82.1635   10.3998 C.ar    1  UNL1        0.0772
     15 N          63.0398   80.6964   10.6090 N.ar    1  UNL1       -0.3094
     16 C          63.2386   79.6176    9.5860 C.3     1  UNL1        0.1319
     17 C          62.5741   80.4976   12.0210 C.ar    1  UNL1        0.1483
     18 N          62.1938   79.2662   12.7884 N.ar    1  UNL1       -0.2065
     19 C          61.7575   79.3788   14.2191 C.ar    1  UNL1        0.2014
     20 N          61.7016   80.7231   14.8825 N.ar    1  UNL1       -0.2094
     21 C          62.0820   81.9546   14.1151 C.ar    1  UNL1        0.1300
     22 N          62.0261   83.2987   14.7784 N.pl3   1  UNL1       -0.3425
     23 C          62.5182   81.8418   12.6844 C.ar    1  UNL1        0.0669
     24 H          61.7398   83.3728   15.7174 H       1  UNL1        0.1437
     25 H          62.2758   84.1070   14.2747 H       1  UNL1        0.1437
     26 C          63.5957   91.2168   13.2259 C.3     1  UNL1        0.1312
     27 C          66.5241   93.7250    9.7425 C.3     1  UNL1        0.0521
     28 C          66.2517   93.3227   11.1617 C.ar    1  UNL1        0.0590
     29 C          67.1710   93.7723   12.2583 C.ar    1  UNL1        0.0147
     30 C          66.8986   93.3701   13.6775 C.ar    1  UNL1        0.0024
     31 C          65.7069   92.5182   14.0000 C.ar    1  UNL1        0.0152
     32 C          64.7875   92.0687   12.9034 C.ar    1  UNL1        0.0678
     33 N          65.0599   92.4709   11.4842 N.ar    1  UNL1       -0.2535
@<TRIPOS>BOND
     1    27    28    1
     2    28    29   ar
     3    29    30   ar
     4    30    31   ar
     5    31    32   ar
     6    32    26    1
     7    26     1    1
     8     1     2    2
     9     1     3   am
    10     3     4    1
    11     4     5    1
    12     5     6    1
    13     6     7   ar
    14     7     8   ar
    15     8     9   ar
    16     9    10   ar
    17    10    13    1
    18    13    14   ar
    19    14    15   ar
    20    15    16    1
    21    15    17   ar
    22    17    18   ar
    23    18    19   ar
    24    19    20   ar
    25    20    21   ar
    26    21    22    1
    27    21    23   ar
    28    10    11   ar
    29    11    12    1
    30    32    33   ar
    31    33    28   ar
    32     7     3    1
    33    23    13   ar
    34    11     6   ar
    35    23    17   ar
    36    22    24    1
    37    22    25    1
@<TRIPOS>MOLECULE
*****
 33 37 0 0 0
SMALL
GASTEIGER

@<TRIPOS>ATOM
      1 C          45.5251   71.1690   17.3788 C.2     1  UNL1        0.2354
      2 O          46.6740   70.9791   18.3243 O.2     1  UNL1       -0.2741
      3 N          44.9791   72.5435   17.1284 N.am    1  UNL1       -0.2582
      4 C          43.8399   72.8867   16.2149 C.3     1  UNL1        0.1030
      5 C          43.6333   74.3714   16.2694 C.3     1  UNL1        0.0518
      6 C          44.6448   74.9458   17.2166 C.ar    1  UNL1        0.0207
      7 C          45.4766   73.8160   17.7474 C.ar    1  UNL1        0.0520
      8 C          46.5794   74.0920   18.7259 C.ar    1  UNL1        0.0147
      9 C          46.8505   75.4978   19.1736 C.ar    1  UNL1        0.0035
     10 C          46.0188   76.6275   18.6428 C.ar    1  UNL1        0.0289
     11 C          44.9159   76.3515   17.6642 C.ar    1  UNL1        0.1374
     12 F          44.0841   77.4812   17.1334 F       1  UNL1       -0.2045
     13 C          46.2898   78.0332   19.0904 C.ar    1  UNL1        0.0250
     14 C          47.2393   78.9972   18.4428 C.ar    1  UNL1        0.0772
     15 N          47.1953   80.2815   19.2164 N.ar    1  UNL1       -0.3094
     16 C          47.9886   81.5188   18.9169 C.3     1  UNL1        0.1319
     17 C          46.2186   80.1113   20.3422 C.ar    1  UNL1        0.1483
     18 N          45.7666   81.0421   21.4281 N.ar    1  UNL1       -0.2065
     19 C          44.7550   80.5835   22.4361 C.ar    1  UNL1        0.2014
     20 N          44.1953   79.1939   22.3583 N.ar    1  UNL1       -0.2094
     21 C          44.6474   78.2631   21.2723 C.ar    1  UNL1        0.1300
     22 N          44.0878   76.8736   21.1944 N.pl3   1  UNL1       -0.3425
     23 C          45.6591   78.7218   20.2643 C.ar    1  UNL1        0.0669
     24 H          43.4238   76.5725   21.8560 H       1  UNL1        0.1437
     25 H          44.3845   76.2626   20.4817 H       1  UNL1        0.1437
     26 C          44.9221   69.9844   16.6838 C.3     1  UNL1        0.1312
     27 C          43.6330   69.8512   11.6519 C.3     1  UNL1        0.0521
     28 C          44.6373   69.6214   12.7421 C.ar    1  UNL1        0.0590
     29 C          46.0013   69.0952   12.4066 C.ar    1  UNL1        0.0147
     30 C          47.0056   68.8653   13.4968 C.ar    1  UNL1        0.0024
     31 C          46.6459   69.1617   14.9226 C.ar    1  UNL1        0.0152
     32 C          45.2819   69.6879   15.2580 C.ar    1  UNL1        0.0678
     33 N          44.2776   69.9178   14.1678 N.ar    1  UNL1       -0.2535
@<TRIPOS>BOND
     1    27    28    1
     2    28    29   ar
     3    29    30   ar
     4    30    31   ar
     5    31    32   ar
     6    32    26    1
     7    26     1    1
     8     1     2    2
     9     1     3   am
    10     3     4    1
    11     4     5    1
    12     5     6    1
    13     6     7   ar
    14     7     8   ar
    15     8     9   ar
    16     9    10   ar
    17    10    13    1
    18    13    14   ar
    19    14    15   ar
    20    15    16    1
    21    15    17   ar
    22    17    18   ar
    23    18    19   ar
    24    19    20   ar
    25    20    21   ar
    26    21    22    1
    27    21    23   ar
    28    10    11   ar
    29    11    12    1
    30    32    33   ar
    31    33    28   ar
    32     7     3    1
    33    23    13   ar
    34    11     6   ar
    35    23    17   ar
    36    22    24    1
    37    22    25    1
@<TRIPOS>MOLECULE
*****
 33 37 0 0 0
SMALL
GASTEIGER

@<TRIPOS>ATOM
      1 C          44.7883   71.4551   16.8400 C.2     1  UNL1        0.2354
      2 O          43.6331   72.0568   16.0960 O.2     1  UNL1       -0.2741
      3 N          45.5164   72.2616   17.8741 N.am    1  UNL1       -0.2582
      4 C          46.6834   71.7968   18.6938 C.3     1  UNL1        0.1030
      5 C          47.0935   72.9226   19.5964 C.3     1  UNL1        0.0518
      6 C          46.1799   74.0831   19.3344 C.ar    1  UNL1        0.0207
      7 C          45.2052   73.6746   18.2700 C.ar    1  UNL1        0.0520
      8 C          44.1602   74.6420   17.7987 C.ar    1  UNL1        0.0147
      9 C          44.0899   76.0180   18.3919 C.ar    1  UNL1        0.0035
     10 C          45.0646   76.4265   19.4564 C.ar    1  UNL1        0.0289
     11 C          46.1096   75.4590   19.9276 C.ar    1  UNL1        0.1374
     12 F          47.0844   75.8675   20.9921 F       1  UNL1       -0.2045
     13 C          44.9944   77.8024   20.0496 C.ar    1  UNL1        0.0250
     14 C          44.0642   78.2462   21.1394 C.ar    1  UNL1        0.0772
     15 N          44.3369   79.6942   21.4205 N.ar    1  UNL1       -0.3094
     16 C          43.6342   80.5422   22.4389 C.3     1  UNL1        0.1319
     17 C          45.4357   80.1452   20.5044 C.ar    1  UNL1        0.1483
     18 N          46.1187   81.4695   20.3322 N.ar    1  UNL1       -0.2065
     19 C          47.2081   81.6247   19.3128 C.ar    1  UNL1        0.2014
     20 N          47.6145   80.4555   18.4655 N.ar    1  UNL1       -0.2094
     21 C          46.9314   79.1311   18.6377 C.ar    1  UNL1        0.1300
     22 N          47.3377   77.9619   17.7904 N.pl3   1  UNL1       -0.3425
     23 C          45.8420   78.9760   19.6571 C.ar    1  UNL1        0.0669
     24 H          48.0527   78.0637   17.1214 H       1  UNL1        0.1437
     25 H          46.8894   77.0927   17.9034 H       1  UNL1        0.1437
     26 C          45.2155   70.0468   16.5498 C.3     1  UNL1        0.1312
     27 C          43.6349   69.8990   11.6020 C.3     1  UNL1        0.0521
     28 C          44.6339   69.5294   12.6582 C.ar    1  UNL1        0.0590
     29 C          45.8415   68.7164   12.2968 C.ar    1  UNL1        0.0147
     30 C          46.8404   68.3468   13.3529 C.ar    1  UNL1        0.0024
     31 C          46.6318   68.7903   14.7706 C.ar    1  UNL1        0.0152
     32 C          45.4242   69.6033   15.1321 C.ar    1  UNL1        0.0678
     33 N          44.4252   69.9729   14.0759 N.ar    1  UNL1       -0.2535
@<TRIPOS>BOND
     1    27    28    1
     2    28    29   ar
     3    29    30   ar
     4    30    31   ar
     5    31    32   ar
     6    32    26    1
     7    26     1    1
     8     1     2    2
     9     1     3   am
    10     3     4    1
    11     4     5    1
    12     5     6    1
    13     6     7   ar
    14     7     8   ar
    15     8     9   ar
    16     9    10   ar
    17    10    13    1
    18    13    14   ar
    19    14    15   ar
    20    15    16    1
    21    15    17   ar
    22    17    18   ar
    23    18    19   ar
    24    19    20   ar
    25    20    21   ar
    26    21    22    1
    27    21    23   ar
    28    10    11   ar
    29    11    12    1
    30    32    33   ar
    31    33    28   ar
    32     7     3    1
    33    23    13   ar
    34    11     6   ar
    35    23    17   ar
    36    22    24    1
    37    22    25    1
@<TRIPOS>MOLECULE
*****
 33 37 0 0 0
SMALL
GASTEIGER

@<TRIPOS>ATOM
      1 C          61.1246   92.2661    0.6091 C.2     1  UNL1        0.2354
      2 O          60.7144   90.9941   -0.0719 O.2     1  UNL1       -0.2741
      3 N          60.2918   93.5037    0.4512 N.am    1  UNL1       -0.2582
      4 C          60.5745   94.8413    1.0683 C.3     1  UNL1        0.1030
      5 C          59.4875   95.7851    0.6470 C.3     1  UNL1        0.0518
      6 C          58.5330   95.0309   -0.2306 C.ar    1  UNL1        0.0207
      7 C          59.0301   93.6208   -0.3515 C.ar    1  UNL1        0.0520
      8 C          58.2697   92.6257   -1.1770 C.ar    1  UNL1        0.0147
      9 C          57.0120   93.0407   -1.8815 C.ar    1  UNL1        0.0035
     10 C          56.5149   94.4507   -1.7606 C.ar    1  UNL1        0.0289
     11 C          57.2755   95.4458   -0.9350 C.ar    1  UNL1        0.1374
     12 F          56.7784   96.8559   -0.8140 F       1  UNL1       -0.2045
     13 C          55.2574   94.8657   -2.4650 C.ar    1  UNL1        0.0250
     14 C          53.9064   95.0297   -1.8341 C.ar    1  UNL1        0.0772
     15 N          52.9441   95.4549   -2.9033 N.ar    1  UNL1       -0.3094
     16 C          51.4822   95.7326   -2.7140 C.3     1  UNL1        0.1319
     17 C          53.7003   95.5536   -4.1950 C.ar    1  UNL1        0.1483
     18 N          53.2718   95.9280   -5.5828 N.ar    1  UNL1       -0.2065
     19 C          54.2728   95.9383   -6.6998 C.ar    1  UNL1        0.2014
     20 N          55.7026   95.5742   -6.4290 N.ar    1  UNL1       -0.2094
     21 C          56.1312   95.1997   -5.0411 C.ar    1  UNL1        0.1300
     22 N          57.5608   94.8355   -4.7702 N.pl3   1  UNL1       -0.3425
     23 C          55.1300   95.1894   -3.9241 C.ar    1  UNL1        0.0669
     24 H          58.2179   94.8423   -5.5033 H       1  UNL1        0.1437
     25 H          57.8421   94.5898   -3.8593 H       1  UNL1        0.1437
     26 C          62.3676   92.3005    1.4479 C.3     1  UNL1        0.1312
     27 C          65.3243   96.1017    3.3998 C.3     1  UNL1        0.0521
     28 C          64.8541   95.2941    2.2264 C.ar    1  UNL1        0.0590
     29 C          65.3921   95.5795    0.8556 C.ar    1  UNL1        0.0147
     30 C          64.9220   94.7719   -0.3178 C.ar    1  UNL1        0.0024
     31 C          63.9138   93.6789   -0.1204 C.ar    1  UNL1        0.0152
     32 C          63.3758   93.3936    1.2504 C.ar    1  UNL1        0.0678
     33 N          63.8460   94.2011    2.4238 N.ar    1  UNL1       -0.2535
@<TRIPOS>BOND
     1    27    28    1
     2    28    29   ar
     3    29    30   ar
     4    30    31   ar
     5    31    32   ar
     6    32    26    1
     7    26     1    1
     8     1     2    2
     9     1     3   am
    10     3     4    1
    11     4     5    1
    12     5     6    1
    13     6     7   ar
    14     7     8   ar
    15     8     9   ar
    16     9    10   ar
    17    10    13    1
    18    13    14   ar
    19    14    15   ar
    20    15    16    1
    21    15    17   ar
    22    17    18   ar
    23    18    19   ar
    24    19    20   ar
    25    20    21   ar
    26    21    22    1
    27    21    23   ar
    28    10    11   ar
    29    11    12    1
    30    32    33   ar
    31    33    28   ar
    32     7     3    1
    33    23    13   ar
    34    11     6   ar
    35    23    17   ar
    36    22    24    1
    37    22    25    1
