@<TRIPOS>MOLECULE
*****
 39 43 0 0 0
SMALL
GASTEIGER

@<TRIPOS>ATOM
      1 N          63.4650   85.8101   12.9822 N.am    1  UNL1       -0.2770
      2 C          64.1693   84.4985   13.1659 C.2     1  UNL1        0.2294
      3 O          65.0670   84.2885   14.3491 O.2     1  UNL1       -0.2747
      4 C          63.9758   83.3969   12.1663 C.3     1  UNL1        0.1211
      5 C          64.7073   83.4349   10.8574 C.3     1  UNL1        0.0804
      6 N          64.5138   82.3333    9.8579 N.3     1  UNL1       -0.2969
      7 C          63.5888   81.1937   10.1673 C.3     1  UNL1        0.0714
      8 C          62.8572   81.1558   11.4763 C.3     1  UNL1        0.0490
      9 C          63.0508   82.2573   12.4758 C.3     1  UNL1        0.1218
     10 O          62.1257   81.1178   12.7852 O.3     1  UNL1       -0.3536
     11 C          61.3942   81.0799   14.0943 C.3     1  UNL1        0.1471
     12 C          61.5877   82.1814   15.0937 C.3     1  UNL1        0.0582
     13 C          62.5127   83.3210   14.7843 C.ar    1  UNL1       -0.0214
     14 C          62.7062   84.4226   15.7839 C.ar    1  UNL1       -0.0044
     15 C          63.6312   85.5622   15.4744 C.ar    1  UNL1       -0.0003
     16 C          64.3628   85.6001   14.1654 C.ar    1  UNL1       -0.0003
     17 C          64.1693   84.4985   13.1659 C.ar    1  UNL1       -0.0023
     18 C          63.2442   83.3590   13.4753 C.ar    1  UNL1       -0.0013
     19 H          65.4335   81.9274    9.6852 H       1  UNL1        0.1233
     20 C          62.5673   86.0201   11.7989 C.3     1  UNL1        0.0758
     21 C          62.3676   86.0748   10.3133 C.3     1  UNL1        0.0215
     22 C          61.2120   86.3291   11.2352 C.3     1  UNL1        0.0215
     23 C          63.6584   86.9117   13.9817 C.3     1  UNL1        0.1201
     24 C          63.2631   90.1570   11.7318 C.ar    1  UNL1       -0.0194
     25 C          63.1720   88.7327   12.1936 C.ar    1  UNL1       -0.0067
     26 C          63.7496   88.3359   13.5199 C.ar    1  UNL1        0.0004
     27 C          64.4182   89.3633   14.3844 C.ar    1  UNL1        0.0343
     28 C          64.5093   90.7876   13.9226 C.ar    1  UNL1        0.1381
     29 C          63.9318   91.1844   12.5963 C.ar    1  UNL1        0.0326
     30 C          62.6856   90.5538   10.4056 C.3     1  UNL1        0.0290
     31 C          61.7321   89.6371    9.6983 C.3     1  UNL1        0.0367
     32 C          60.2560   89.7632    9.9341 C.3     1  UNL1        0.1426
     33 C          59.3152   89.5594   12.3471 C.3     1  UNL1        0.1741
     34 O          59.7496   90.4088   11.1897 O.3     1  UNL1       -0.3511
     35 O          65.1779   91.8150   14.7871 O.3     1  UNL1       -0.4728
     36 C          66.2698   92.6746   14.2224 C.3     1  UNL1        0.2373
     37 C          67.6071   92.0750   13.9031 C.3     1  UNL1        0.1894
     38 O          68.8583   92.7017   14.4431 O.3     1  UNL1       -0.3471
     39 C          68.8292   93.4211   15.7590 C.3     1  UNL1        0.1743
@<TRIPOS>BOND
     1    33    34    1
     2    34    32    1
     3    32    31    1
     4    31    30    1
     5    30    24    1
     6    24    25   ar
     7    25    26   ar
     8    26    23    1
     9    23     1    1
    10     1     2   am
    11     2     3    2
    12     4     2    1
    13     4     5    1
    14     5     6    1
    15     6     7    1
    16     7     8    1
    17     9     8    1
    18     9    10    1
    19    10    11    1
    20    11    12    1
    21    12    13    1
    22    13    14   ar
    23    14    15   ar
    24    15    16   ar
    25    16    17   ar
    26    17    18   ar
    27     1    20    1
    28    20    21    1
    29    21    22    1
    30    26    27   ar
    31    27    28   ar
    32    28    35    1
    33    35    36    1
    34    36    37    1
    35    37    38    1
    36    38    39    1
    37    28    29   ar
    38    29    24   ar
    39     9     4    1
    40    18    13   ar
    41    22    20    1
    42    18     9    1
    43     6    19    1
@<TRIPOS>MOLECULE
*****
 39 43 0 0 0
SMALL
GASTEIGER

@<TRIPOS>ATOM
      1 N          63.4645   85.7694   13.0166 N.am    1  UNL1       -0.2770
      2 C          64.1609   84.4508   13.1788 C.2     1  UNL1        0.2294
      3 O          65.0322   84.2048   14.3747 O.2     1  UNL1       -0.2747
      4 C          63.9858   83.3780   12.1450 C.3     1  UNL1        0.1211
      5 C          64.7276   83.4621   10.8439 C.3     1  UNL1        0.0804
      6 N          64.5525   82.3894    9.8102 N.3     1  UNL1       -0.2969
      7 C          63.6358   81.2326   10.0775 C.3     1  UNL1        0.0714
      8 C          62.8941   81.1486   11.3786 C.3     1  UNL1        0.0490
      9 C          63.0691   82.2213   12.4123 C.3     1  UNL1        0.1218
     10 O          62.1523   81.0645   12.6796 O.3     1  UNL1       -0.3536
     11 C          61.4106   80.9805   13.9807 C.3     1  UNL1        0.1471
     12 C          61.5857   82.0532   15.0145 C.3     1  UNL1        0.0582
     13 C          62.5024   83.2099   14.7471 C.ar    1  UNL1       -0.0214
     14 C          62.6774   84.2827   15.7810 C.ar    1  UNL1       -0.0044
     15 C          63.5942   85.4394   15.5136 C.ar    1  UNL1       -0.0003
     16 C          64.3359   85.5235   14.2125 C.ar    1  UNL1       -0.0003
     17 C          64.1609   84.4508   13.1788 C.ar    1  UNL1       -0.0023
     18 C          63.2441   83.2940   13.4461 C.ar    1  UNL1       -0.0013
     19 H          65.4774   81.9973    9.6332 H       1  UNL1        0.1233
     20 C          62.5932   86.0153   11.8206 C.3     1  UNL1        0.0758
     21 C          62.4372   86.1703   10.3368 C.3     1  UNL1        0.0215
     22 C          61.2399   86.2862   11.2330 C.3     1  UNL1        0.0215
     23 C          63.6395   86.8421   14.0503 C.3     1  UNL1        0.1201
     24 C          64.7527   90.6514   14.0515 C.ar    1  UNL1       -0.0194
     25 C          64.5939   89.2210   14.4744 C.ar    1  UNL1       -0.0067
     26 C          63.7983   88.2725   13.6275 C.ar    1  UNL1        0.0004
     27 C          63.1615   88.7543   12.3577 C.ar    1  UNL1        0.0343
     28 C          63.3203   90.1846   11.9348 C.ar    1  UNL1        0.1381
     29 C          64.1159   91.1332   12.7817 C.ar    1  UNL1        0.0326
     30 C          65.5483   91.6000   14.8984 C.3     1  UNL1        0.0290
     31 C          67.0424   91.6443   14.7734 C.3     1  UNL1        0.0367
     32 C          67.6769   91.8511   13.4300 C.3     1  UNL1        0.1426
     33 C          66.8887   92.7362   11.1181 C.3     1  UNL1        0.1741
     34 O          67.2312   92.9864   12.5568 O.3     1  UNL1       -0.3511
     35 O          62.6835   90.6664   10.6650 O.3     1  UNL1       -0.4728
     36 C          61.7325   89.7781    9.9189 C.3     1  UNL1        0.2373
     37 C          60.2531   89.9934   10.0405 C.3     1  UNL1        0.1894
     38 O          59.6652   90.4427   11.3453 O.3     1  UNL1       -0.3471
     39 C          59.2908   89.4308   12.3873 C.3     1  UNL1        0.1743
@<TRIPOS>BOND
     1    33    34    1
     2    34    32    1
     3    32    31    1
     4    31    30    1
     5    30    24    1
     6    24    25   ar
     7    25    26   ar
     8    26    23    1
     9    23     1    1
    10     1     2   am
    11     2     3    2
    12     4     2    1
    13     4     5    1
    14     5     6    1
    15     6     7    1
    16     7     8    1
    17     9     8    1
    18     9    10    1
    19    10    11    1
    20    11    12    1
    21    12    13    1
    22    13    14   ar
    23    14    15   ar
    24    15    16   ar
    25    16    17   ar
    26    17    18   ar
    27     1    20    1
    28    20    21    1
    29    21    22    1
    30    26    27   ar
    31    27    28   ar
    32    28    35    1
    33    35    36    1
    34    36    37    1
    35    37    38    1
    36    38    39    1
    37    28    29   ar
    38    29    24   ar
    39     9     4    1
    40    18    13   ar
    41    22    20    1
    42    18     9    1
    43     6    19    1
@<TRIPOS>MOLECULE
*****
 39 43 0 0 0
SMALL
GASTEIGER

@<TRIPOS>ATOM
      1 N          63.5924   85.7266   13.1592 N.am    1  UNL1       -0.2770
      2 C          64.2737   84.3938   13.2568 C.2     1  UNL1        0.2294
      3 O          65.1734   84.0947   14.4191 O.2     1  UNL1       -0.2747
      4 C          64.0551   83.3601   12.1919 C.3     1  UNL1        0.1211
      5 C          64.7980   83.4535   10.8922 C.3     1  UNL1        0.0804
      6 N          64.5795   82.4198    9.8275 N.3     1  UNL1       -0.2969
      7 C          63.6181   81.2927   10.0625 C.3     1  UNL1        0.0714
      8 C          62.8752   81.1993   11.3622 C.3     1  UNL1        0.0490
      9 C          63.0937   82.2329   12.4269 C.3     1  UNL1        0.1218
     10 O          62.1323   81.1058   12.6619 O.3     1  UNL1       -0.3536
     11 C          61.3894   81.0124   13.9618 C.3     1  UNL1        0.1471
     12 C          61.6079   82.0461   15.0265 C.3     1  UNL1        0.0582
     13 C          62.5693   83.1732   14.7915 C.ar    1  UNL1       -0.0214
     14 C          62.7878   84.2069   15.8563 C.ar    1  UNL1       -0.0044
     15 C          63.7493   85.3341   15.6213 C.ar    1  UNL1       -0.0003
     16 C          64.4922   85.4275   14.3215 C.ar    1  UNL1       -0.0003
     17 C          64.2737   84.3938   13.2568 C.ar    1  UNL1       -0.0023
     18 C          63.3122   83.2667   13.4918 C.ar    1  UNL1       -0.0013
     19 H          65.4880   81.9971    9.6367 H       1  UNL1        0.1233
     20 C          62.6927   86.0257   11.9968 C.3     1  UNL1        0.0758
     21 C          62.4957   86.2177   10.5222 C.3     1  UNL1        0.0215
     22 C          61.3313   86.3518   11.4581 C.3     1  UNL1        0.0215
     23 C          63.8109   86.7603   14.2239 C.3     1  UNL1        0.1201
     24 C          63.3664   90.1080   12.1392 C.ar    1  UNL1       -0.0194
     25 C          63.3792   88.6508   12.4947 C.ar    1  UNL1       -0.0067
     26 C          63.7981   88.2175   13.8684 C.ar    1  UNL1        0.0004
     27 C          64.2043   89.2415   14.8864 C.ar    1  UNL1        0.0343
     28 C          64.1915   90.6987   14.5309 C.ar    1  UNL1        0.1381
     29 C          63.7726   91.1319   13.1573 C.ar    1  UNL1        0.0326
     30 C          62.9475   90.5412   10.7656 C.3     1  UNL1        0.0290
     31 C          63.7056   91.6243   10.0571 C.3     1  UNL1        0.0367
     32 C          64.7783   92.3846   10.7792 C.3     1  UNL1        0.1426
     33 C          66.9463   93.6410   10.0930 C.3     1  UNL1        0.1741
     34 O          66.1888   92.3585   10.2696 O.3     1  UNL1       -0.3511
     35 O          64.5977   91.7227   15.5491 O.3     1  UNL1       -0.4728
     36 C          65.9826   92.2984   15.5224 C.3     1  UNL1        0.2373
     37 C          67.0567   91.6316   14.7152 C.3     1  UNL1        0.1894
     38 O          67.6897   92.3568   13.5648 O.3     1  UNL1       -0.3471
     39 C          68.6557   91.6414   12.6676 C.3     1  UNL1        0.1743
@<TRIPOS>BOND
     1    33    34    1
     2    34    32    1
     3    32    31    1
     4    31    30    1
     5    30    24    1
     6    24    25   ar
     7    25    26   ar
     8    26    23    1
     9    23     1    1
    10     1     2   am
    11     2     3    2
    12     4     2    1
    13     4     5    1
    14     5     6    1
    15     6     7    1
    16     7     8    1
    17     9     8    1
    18     9    10    1
    19    10    11    1
    20    11    12    1
    21    12    13    1
    22    13    14   ar
    23    14    15   ar
    24    15    16   ar
    25    16    17   ar
    26    17    18   ar
    27     1    20    1
    28    20    21    1
    29    21    22    1
    30    26    27   ar
    31    27    28   ar
    32    28    35    1
    33    35    36    1
    34    36    37    1
    35    37    38    1
    36    38    39    1
    37    28    29   ar
    38    29    24   ar
    39     9     4    1
    40    18    13   ar
    41    22    20    1
    42    18     9    1
    43     6    19    1
@<TRIPOS>MOLECULE
*****
 39 43 0 0 0
SMALL
GASTEIGER

@<TRIPOS>ATOM
      1 N          62.8610   86.8628   12.5859 N.am    1  UNL1       -0.2770
      2 C          62.2479   85.5593   12.1674 C.2     1  UNL1        0.2294
      3 O          61.2952   85.5160   11.0097 O.2     1  UNL1       -0.2747
      4 C          62.5877   84.2991   12.9068 C.3     1  UNL1        0.1211
      5 C          62.2551   84.1716   14.3639 C.3     1  UNL1        0.0804
      6 N          62.5948   82.9115   15.1031 N.3     1  UNL1       -0.2969
      7 C          63.2671   81.7789   14.3854 C.3     1  UNL1        0.0714
      8 C          63.5997   81.9064   12.9283 C.3     1  UNL1        0.0490
      9 C          63.2600   83.1665   12.1890 C.3     1  UNL1        0.1218
     10 O          63.9323   82.0339   11.4712 O.3     1  UNL1       -0.3536
     11 C          64.2649   82.1615   10.0141 C.3     1  UNL1        0.1471
     12 C          63.9252   83.4217    9.2748 C.3     1  UNL1        0.0582
     13 C          63.2528   84.5543    9.9926 C.ar    1  UNL1       -0.0214
     14 C          62.9131   85.8145    9.2532 C.ar    1  UNL1       -0.0044
     15 C          62.2408   86.9471    9.9710 C.ar    1  UNL1       -0.0003
     16 C          61.9082   86.8195   11.4282 C.ar    1  UNL1       -0.0003
     17 C          62.2479   85.5593   12.1674 C.ar    1  UNL1       -0.0023
     18 C          62.9203   84.4267   11.4497 C.ar    1  UNL1       -0.0013
     19 H          61.7197   82.5447   15.4775 H       1  UNL1        0.1233
     20 C          63.8137   86.9061   13.7437 C.3     1  UNL1        0.0758
     21 C          64.2577   87.5197   15.0385 C.3     1  UNL1        0.0215
     22 C          65.0199   86.3675   14.4543 C.3     1  UNL1        0.0215
     23 C          62.5213   88.1230   11.8466 C.3     1  UNL1        0.1201
     24 C          64.4588   90.9575   13.8369 C.ar    1  UNL1       -0.0194
     25 C          63.7118   89.6906   13.5423 C.ar    1  UNL1       -0.0067
     26 C          63.2683   89.3899   12.1412 C.ar    1  UNL1        0.0004
     27 C          63.5719   90.3562   11.0348 C.ar    1  UNL1        0.0343
     28 C          64.3189   91.6231   11.3294 C.ar    1  UNL1        0.1381
     29 C          64.7624   91.9238   12.7304 C.ar    1  UNL1        0.0326
     30 C          64.9023   91.2583   15.2379 C.3     1  UNL1        0.0290
     31 C          66.1152   92.1084   15.4744 C.3     1  UNL1        0.0367
     32 C          67.4483   91.6795   14.9368 C.3     1  UNL1        0.1426
     33 C          68.7784   93.7415   15.7903 C.3     1  UNL1        0.1741
     34 O          68.5410   92.6895   14.7478 O.3     1  UNL1       -0.3511
     35 O          64.6224   92.5894   10.2229 O.3     1  UNL1       -0.4728
     36 C          65.7151   93.6032   10.3913 C.3     1  UNL1        0.2373
     37 C          67.1307   93.2441   10.0491 C.3     1  UNL1        0.1894
     38 O          68.0878   94.3094    9.6030 O.3     1  UNL1       -0.3471
     39 C          67.6133   95.4186    8.7118 C.3     1  UNL1        0.1743
@<TRIPOS>BOND
     1    33    34    1
     2    34    32    1
     3    32    31    1
     4    31    30    1
     5    30    24    1
     6    24    25   ar
     7    25    26   ar
     8    26    23    1
     9    23     1    1
    10     1     2   am
    11     2     3    2
    12     4     2    1
    13     4     5    1
    14     5     6    1
    15     6     7    1
    16     7     8    1
    17     9     8    1
    18     9    10    1
    19    10    11    1
    20    11    12    1
    21    12    13    1
    22    13    14   ar
    23    14    15   ar
    24    15    16   ar
    25    16    17   ar
    26    17    18   ar
    27     1    20    1
    28    20    21    1
    29    21    22    1
    30    26    27   ar
    31    27    28   ar
    32    28    35    1
    33    35    36    1
    34    36    37    1
    35    37    38    1
    36    38    39    1
    37    28    29   ar
    38    29    24   ar
    39     9     4    1
    40    18    13   ar
    41    22    20    1
    42    18     9    1
    43     6    19    1
@<TRIPOS>MOLECULE
*****
 39 43 0 0 0
SMALL
GASTEIGER

@<TRIPOS>ATOM
      1 N          62.8688   86.9061   12.5804 N.am    1  UNL1       -0.2770
      2 C          62.2363   85.6122   12.1608 C.2     1  UNL1        0.2294
      3 O          61.2836   85.5840   11.0026 O.2     1  UNL1       -0.2747
      4 C          62.5564   84.3466   12.8996 C.3     1  UNL1        0.1211
      5 C          62.2142   84.2204   14.3546 C.3     1  UNL1        0.0804
      6 N          62.5344   82.9549   15.0933 N.3     1  UNL1       -0.2969
      7 C          63.1968   81.8155   14.3771 C.3     1  UNL1        0.0714
      8 C          63.5390   81.9416   12.9221 C.3     1  UNL1        0.0490
      9 C          63.2188   83.2072   12.1834 C.3     1  UNL1        0.1218
     10 O          63.8812   82.0678   11.4672 O.3     1  UNL1       -0.3536
     11 C          64.2234   82.1940   10.0121 C.3     1  UNL1        0.1471
     12 C          63.9032   83.4596    9.2734 C.3     1  UNL1        0.0582
     13 C          63.2408   84.5990    9.9897 C.ar    1  UNL1       -0.0214
     14 C          62.9207   85.8646    9.2509 C.ar    1  UNL1       -0.0044
     15 C          62.2583   87.0041    9.9671 C.ar    1  UNL1       -0.0003
     16 C          61.9161   86.8778   11.4221 C.ar    1  UNL1       -0.0003
     17 C          62.2363   85.6122   12.1608 C.ar    1  UNL1       -0.0023
     18 C          62.8986   84.4728   11.4446 C.ar    1  UNL1       -0.0013
     19 H          61.6529   82.5982   15.4621 H       1  UNL1        0.1233
     20 C          63.8214   86.9342   13.7387 C.3     1  UNL1        0.0758
     21 C          65.0571   86.4216   14.4172 C.3     1  UNL1        0.0215
     22 C          64.2358   87.4957   15.0665 C.3     1  UNL1        0.0215
     23 C          62.5486   88.1716   11.8417 C.3     1  UNL1        0.1201
     24 C          64.4433   91.6355   11.4395 C.ar    1  UNL1       -0.0194
     25 C          63.7259   90.3641   11.0950 C.ar    1  UNL1       -0.0067
     26 C          63.2661   89.4431   12.1861 C.ar    1  UNL1        0.0004
     27 C          63.5237   89.7936   13.6216 C.ar    1  UNL1        0.0343
     28 C          64.2411   91.0651   13.9661 C.ar    1  UNL1        0.1381
     29 C          64.7009   91.9860   12.8751 C.ar    1  UNL1        0.0326
     30 C          64.9031   92.5565   10.3484 C.3     1  UNL1        0.0290
     31 C          65.8033   93.7118   10.6720 C.3     1  UNL1        0.0367
     32 C          66.7518   94.2369    9.6352 C.3     1  UNL1        0.1426
     33 C          68.6509   92.4866    9.3539 C.3     1  UNL1        0.1741
     34 O          68.2065   93.8771    9.6987 O.3     1  UNL1       -0.3511
     35 O          64.4988   91.4156   15.4017 O.3     1  UNL1       -0.4728
     36 C          65.6561   92.2992   15.7619 C.3     1  UNL1        0.2373
     37 C          67.0472   91.9182   15.3500 C.3     1  UNL1        0.1894
     38 O          67.9979   92.9689   14.8578 O.3     1  UNL1       -0.3471
     39 C          68.8491   93.7264   15.8333 C.3     1  UNL1        0.1743
@<TRIPOS>BOND
     1    33    34    1
     2    34    32    1
     3    32    31    1
     4    31    30    1
     5    30    24    1
     6    24    25   ar
     7    25    26   ar
     8    26    23    1
     9    23     1    1
    10     1     2   am
    11     2     3    2
    12     4     2    1
    13     4     5    1
    14     5     6    1
    15     6     7    1
    16     7     8    1
    17     9     8    1
    18     9    10    1
    19    10    11    1
    20    11    12    1
    21    12    13    1
    22    13    14   ar
    23    14    15   ar
    24    15    16   ar
    25    16    17   ar
    26    17    18   ar
    27     1    20    1
    28    20    21    1
    29    21    22    1
    30    26    27   ar
    31    27    28   ar
    32    28    35    1
    33    35    36    1
    34    36    37    1
    35    37    38    1
    36    38    39    1
    37    28    29   ar
    38    29    24   ar
    39     9     4    1
    40    18    13   ar
    41    22    20    1
    42    18     9    1
    43     6    19    1
@<TRIPOS>MOLECULE
*****
 39 43 0 0 0
SMALL
GASTEIGER

@<TRIPOS>ATOM
      1 N          63.5138   85.7504   13.1945 N.am    1  UNL1       -0.2770
      2 C          64.1947   84.4171   13.2869 C.2     1  UNL1        0.2294
      3 O          65.0547   84.0947   14.4729 O.2     1  UNL1       -0.2747
      4 C          64.0157   83.4060   12.1934 C.3     1  UNL1        0.1211
      5 C          64.7698   83.5531   10.9051 C.3     1  UNL1        0.0804
      6 N          64.5907   82.5421    9.8117 N.3     1  UNL1       -0.2969
      7 C          63.6575   81.3840   10.0064 C.3     1  UNL1        0.0714
      8 C          62.9033   81.2369   11.2947 C.3     1  UNL1        0.0490
      9 C          63.0824   82.2479   12.3881 C.3     1  UNL1        0.1218
     10 O          62.1492   81.0899   12.5829 O.3     1  UNL1       -0.3536
     11 C          61.3951   80.9428   13.8712 C.3     1  UNL1        0.1471
     12 C          61.5742   81.9538   14.9647 C.3     1  UNL1        0.0582
     13 C          62.5074   83.1119   14.7699 C.ar    1  UNL1       -0.0214
     14 C          62.6865   84.1229   15.8635 C.ar    1  UNL1       -0.0044
     15 C          63.6197   85.2810   15.6688 C.ar    1  UNL1       -0.0003
     16 C          64.3738   85.4281   14.3804 C.ar    1  UNL1       -0.0003
     17 C          64.1947   84.4171   13.2869 C.ar    1  UNL1       -0.0023
     18 C          63.2615   83.2590   13.4817 C.ar    1  UNL1       -0.0013
     19 H          65.5122   82.1487    9.6205 H       1  UNL1        0.1233
     20 C          62.6538   86.0727   12.0084 C.3     1  UNL1        0.0758
     21 C          62.5226   86.4241   10.5561 C.3     1  UNL1        0.0215
     22 C          61.2956   86.2795   11.4066 C.3     1  UNL1        0.0215
     23 C          63.6929   86.7614   14.2880 C.3     1  UNL1        0.1201
     24 C          64.3681   90.6544   14.6607 C.ar    1  UNL1       -0.0194
     25 C          64.2507   89.1975   14.9980 C.ar    1  UNL1       -0.0067
     26 C          63.8102   88.2183   13.9506 C.ar    1  UNL1        0.0004
     27 C          63.4872   88.6958   12.5659 C.ar    1  UNL1        0.0343
     28 C          63.6045   90.1527   12.2285 C.ar    1  UNL1        0.1381
     29 C          64.0450   91.1320   13.2759 C.ar    1  UNL1        0.0326
     30 C          64.8085   91.6337   15.7080 C.3     1  UNL1        0.0290
     31 C          66.1620   92.2733   15.6148 C.3     1  UNL1        0.0367
     32 C          66.4172   93.3435   14.5951 C.3     1  UNL1        0.1426
     33 C          67.9964   91.7926   13.2349 C.3     1  UNL1        0.1741
     34 O          67.5080   93.1680   13.5806 O.3     1  UNL1       -0.3511
     35 O          63.2814   90.6302   10.8437 O.3     1  UNL1       -0.4728
     36 C          63.8385   91.9327   10.3505 C.3     1  UNL1        0.2373
     37 C          65.2292   92.3459   10.7315 C.3     1  UNL1        0.1894
     38 O          65.8779   93.5140   10.0497 O.3     1  UNL1       -0.3471
     39 C          66.0635   94.8057   10.7893 C.3     1  UNL1        0.1743
@<TRIPOS>BOND
     1    33    34    1
     2    34    32    1
     3    32    31    1
     4    31    30    1
     5    30    24    1
     6    24    25   ar
     7    25    26   ar
     8    26    23    1
     9    23     1    1
    10     1     2   am
    11     2     3    2
    12     4     2    1
    13     4     5    1
    14     5     6    1
    15     6     7    1
    16     7     8    1
    17     9     8    1
    18     9    10    1
    19    10    11    1
    20    11    12    1
    21    12    13    1
    22    13    14   ar
    23    14    15   ar
    24    15    16   ar
    25    16    17   ar
    26    17    18   ar
    27     1    20    1
    28    20    21    1
    29    21    22    1
    30    26    27   ar
    31    27    28   ar
    32    28    35    1
    33    35    36    1
    34    36    37    1
    35    37    38    1
    36    38    39    1
    37    28    29   ar
    38    29    24   ar
    39     9     4    1
    40    18    13   ar
    41    22    20    1
    42    18     9    1
    43     6    19    1
@<TRIPOS>MOLECULE
*****
 39 43 0 0 0
SMALL
GASTEIGER

@<TRIPOS>ATOM
      1 N          62.8792   86.7810   12.3552 N.am    1  UNL1       -0.2770
      2 C          62.1592   85.5099   12.0144 C.2     1  UNL1        0.2294
      3 O          61.1853   85.4822   10.8740 O.2     1  UNL1       -0.2747
      4 C          62.4133   84.2665   12.8141 C.3     1  UNL1        0.1211
      5 C          61.9985   84.2032   14.2542 C.3     1  UNL1        0.0804
      6 N          62.2526   82.9598   15.0538 N.3     1  UNL1       -0.2969
      7 C          62.9216   81.7798   14.4134 C.3     1  UNL1        0.0714
      8 C          63.3364   81.8432   12.9733 C.3     1  UNL1        0.0490
      9 C          63.0823   83.0865   12.1737 C.3     1  UNL1        0.1218
     10 O          63.7512   81.9065   11.5332 O.3     1  UNL1       -0.3536
     11 C          64.1660   81.9700   10.0931 C.3     1  UNL1        0.1471
     12 C          63.9119   83.2133    9.2934 C.3     1  UNL1        0.0582
     13 C          63.2430   84.3933    9.9339 C.ar    1  UNL1       -0.0214
     14 C          62.9889   85.6367    9.1342 C.ar    1  UNL1       -0.0044
     15 C          62.3199   86.8167    9.7746 C.ar    1  UNL1       -0.0003
     16 C          61.9051   86.7533   11.2148 C.ar    1  UNL1       -0.0003
     17 C          62.1592   85.5099   12.0144 C.ar    1  UNL1       -0.0023
     18 C          62.8282   84.3299   11.3740 C.ar    1  UNL1       -0.0013
     19 H          61.3461   82.6367   15.3919 H       1  UNL1        0.1233
     20 C          63.8532   86.8087   13.4956 C.3     1  UNL1        0.0758
     21 C          64.6008   87.5737   14.5472 C.3     1  UNL1        0.0215
     22 C          64.7925   86.0915   14.4193 C.3     1  UNL1        0.0215
     23 C          62.6251   88.0243   11.5555 C.3     1  UNL1        0.1201
     24 C          64.3378   91.6043   11.5299 C.ar    1  UNL1       -0.0194
     25 C          63.8033   90.2854   11.0558 C.ar    1  UNL1       -0.0067
     26 C          63.1596   89.3433   12.0296 C.ar    1  UNL1        0.0004
     27 C          63.0505   89.7201   13.4774 C.ar    1  UNL1        0.0343
     28 C          63.5851   91.0390   13.9514 C.ar    1  UNL1        0.1381
     29 C          64.2287   91.9811   12.9777 C.ar    1  UNL1        0.0326
     30 C          64.9814   92.5464   10.5562 C.3     1  UNL1        0.0290
     31 C          66.0587   93.4822   11.0184 C.3     1  UNL1        0.0367
     32 C          66.9094   94.2013   10.0137 C.3     1  UNL1        0.1426
     33 C          68.6058   92.4130    9.1928 C.3     1  UNL1        0.1741
     34 O          68.3252   93.7644    9.7800 O.3     1  UNL1       -0.3511
     35 O          63.4759   91.4158   15.3993 O.3     1  UNL1       -0.4728
     36 C          63.7690   90.3994   16.4629 C.3     1  UNL1        0.2373
     37 C          62.7565   89.3418   16.7889 C.3     1  UNL1        0.1894
     38 O          63.1135   88.2246   17.7241 O.3     1  UNL1       -0.3471
     39 C          62.6794   86.8220   17.4172 C.3     1  UNL1        0.1743
@<TRIPOS>BOND
     1    33    34    1
     2    34    32    1
     3    32    31    1
     4    31    30    1
     5    30    24    1
     6    24    25   ar
     7    25    26   ar
     8    26    23    1
     9    23     1    1
    10     1     2   am
    11     2     3    2
    12     4     2    1
    13     4     5    1
    14     5     6    1
    15     6     7    1
    16     7     8    1
    17     9     8    1
    18     9    10    1
    19    10    11    1
    20    11    12    1
    21    12    13    1
    22    13    14   ar
    23    14    15   ar
    24    15    16   ar
    25    16    17   ar
    26    17    18   ar
    27     1    20    1
    28    20    21    1
    29    21    22    1
    30    26    27   ar
    31    27    28   ar
    32    28    35    1
    33    35    36    1
    34    36    37    1
    35    37    38    1
    36    38    39    1
    37    28    29   ar
    38    29    24   ar
    39     9     4    1
    40    18    13   ar
    41    22    20    1
    42    18     9    1
    43     6    19    1
@<TRIPOS>MOLECULE
*****
 39 43 0 0 0
SMALL
GASTEIGER

@<TRIPOS>ATOM
      1 N          63.1862   89.5036   12.9204 N.am    1  UNL1       -0.2770
      2 C          63.5546   90.9546   12.8267 C.2     1  UNL1        0.2294
      3 O          62.9343   91.8192   11.7696 O.2     1  UNL1       -0.2747
      4 C          64.5434   91.5410   13.7903 C.3     1  UNL1        0.1211
      5 C          64.3933   91.2942   15.2622 C.3     1  UNL1        0.0804
      6 N          65.3821   91.8806   16.2256 N.3     1  UNL1       -0.2969
      7 C          66.5210   92.7139   15.7172 C.3     1  UNL1        0.0714
      8 C          66.6712   92.9607   14.2453 C.3     1  UNL1        0.0490
      9 C          65.6824   92.3743   13.2819 C.3     1  UNL1        0.1218
     10 O          66.8213   93.2075   12.7735 O.3     1  UNL1       -0.3536
     11 C          66.9715   93.4543   11.3015 C.3     1  UNL1        0.1471
     12 C          65.9827   92.8679   10.3380 C.3     1  UNL1        0.0582
     13 C          64.8437   92.0346   10.8464 C.ar    1  UNL1       -0.0214
     14 C          63.8549   91.4482    9.8829 C.ar    1  UNL1       -0.0044
     15 C          62.7159   90.6150   10.3913 C.ar    1  UNL1       -0.0003
     16 C          62.5658   90.3682   11.8632 C.ar    1  UNL1       -0.0003
     17 C          63.5546   90.9546   12.8267 C.ar    1  UNL1       -0.0023
     18 C          64.6936   91.7878   12.3183 C.ar    1  UNL1       -0.0013
     19 H          65.7937   91.0999   16.7368 H       1  UNL1        0.1233
     20 C          63.8066   88.6390   13.9776 C.3     1  UNL1        0.0758
     21 C          64.7995   87.5889   14.3794 C.3     1  UNL1        0.0215
     22 C          63.8882   88.1916   15.4070 C.3     1  UNL1        0.0215
     23 C          62.1974   88.9171   11.9569 C.3     1  UNL1        0.1201
     24 C          62.4645   85.8321    9.4747 C.ar    1  UNL1       -0.0194
     25 C          62.2784   87.2316    9.9814 C.ar    1  UNL1       -0.0067
     26 C          62.3835   87.5176   11.4502 C.ar    1  UNL1        0.0004
     27 C          62.6745   86.4041   12.4122 C.ar    1  UNL1        0.0343
     28 C          62.8606   85.0046   11.9055 C.ar    1  UNL1        0.1381
     29 C          62.7556   84.7186   10.4368 C.ar    1  UNL1        0.0326
     30 C          62.3594   85.5460    8.0060 C.3     1  UNL1        0.0290
     31 C          61.0114   85.4467    7.3558 C.3     1  UNL1        0.0367
     32 C          59.8389   86.1730    7.9456 C.3     1  UNL1        0.1426
     33 C          59.6845   88.7664    7.9277 C.3     1  UNL1        0.1741
     34 O          59.3464   87.4406    7.3128 O.3     1  UNL1       -0.3511
     35 O          63.1517   83.8911   12.8675 O.3     1  UNL1       -0.4728
     36 C          63.3384   82.4918   12.3607 C.3     1  UNL1        0.2373
     37 C          63.6859   81.3884   13.3156 C.3     1  UNL1        0.1894
     38 O          62.6874   80.9431   14.3426 O.3     1  UNL1       -0.3471
     39 C          61.2190   81.0869   14.0727 C.3     1  UNL1        0.1743
@<TRIPOS>BOND
     1    33    34    1
     2    34    32    1
     3    32    31    1
     4    31    30    1
     5    30    24    1
     6    24    25   ar
     7    25    26   ar
     8    26    23    1
     9    23     1    1
    10     1     2   am
    11     2     3    2
    12     4     2    1
    13     4     5    1
    14     5     6    1
    15     6     7    1
    16     7     8    1
    17     9     8    1
    18     9    10    1
    19    10    11    1
    20    11    12    1
    21    12    13    1
    22    13    14   ar
    23    14    15   ar
    24    15    16   ar
    25    16    17   ar
    26    17    18   ar
    27     1    20    1
    28    20    21    1
    29    21    22    1
    30    26    27   ar
    31    27    28   ar
    32    28    35    1
    33    35    36    1
    34    36    37    1
    35    37    38    1
    36    38    39    1
    37    28    29   ar
    38    29    24   ar
    39     9     4    1
    40    18    13   ar
    41    22    20    1
    42    18     9    1
    43     6    19    1
@<TRIPOS>MOLECULE
*****
 39 43 0 0 0
SMALL
GASTEIGER

@<TRIPOS>ATOM
      1 N          63.1914   89.4704   12.8882 N.am    1  UNL1       -0.2770
      2 C          63.5464   90.9257   12.8111 C.2     1  UNL1        0.2294
      3 O          62.9369   91.7912   11.7484 O.2     1  UNL1       -0.2747
      4 C          64.5110   91.5156   13.7969 C.3     1  UNL1        0.1211
      5 C          64.3377   91.2548   15.2638 C.3     1  UNL1        0.0804
      6 N          65.3023   91.8446   16.2495 N.3     1  UNL1       -0.2969
      7 C          66.4402   92.6953   15.7682 C.3     1  UNL1        0.0714
      8 C          66.6135   92.9561   14.3013 C.3     1  UNL1        0.0490
      9 C          65.6489   92.3662   13.3156 C.3     1  UNL1        0.1218
     10 O          66.7868   93.2169   12.8344 O.3     1  UNL1       -0.3536
     11 C          66.9600   93.4777   11.3674 C.3     1  UNL1        0.1471
     12 C          65.9954   92.8879   10.3817 C.3     1  UNL1        0.0582
     13 C          64.8576   92.0372   10.8629 C.ar    1  UNL1       -0.0214
     14 C          63.8930   91.4473    9.8772 C.ar    1  UNL1       -0.0044
     15 C          62.7551   90.5966   10.3584 C.ar    1  UNL1       -0.0003
     16 C          62.5818   90.3358   11.8254 C.ar    1  UNL1       -0.0003
     17 C          63.5464   90.9257   12.8111 C.ar    1  UNL1       -0.0023
     18 C          64.6843   91.7764   12.3299 C.ar    1  UNL1       -0.0013
     19 H          65.7140   91.0644   16.7615 H       1  UNL1        0.1233
     20 C          63.8010   88.6049   13.9509 C.3     1  UNL1        0.0758
     21 C          63.8150   88.0958   15.3618 C.3     1  UNL1        0.0215
     22 C          64.8427   87.6150   14.3808 C.3     1  UNL1        0.0215
     23 C          62.2268   88.8805   11.9025 C.3     1  UNL1        0.1201
     24 C          62.9342   84.9754   11.8848 C.ar    1  UNL1       -0.0194
     25 C          62.7379   86.3781   12.3788 C.ar    1  UNL1       -0.0067
     26 C          62.4231   87.4778   11.4084 C.ar    1  UNL1        0.0004
     27 C          62.3047   87.1749    9.9442 C.ar    1  UNL1        0.0343
     28 C          62.5010   85.7723    9.4501 C.ar    1  UNL1        0.1381
     29 C          62.8157   84.6726   10.4204 C.ar    1  UNL1        0.0326
     30 C          63.2489   83.8757   12.8550 C.3     1  UNL1        0.0290
     31 C          63.9163   82.6208   12.3756 C.3     1  UNL1        0.0367
     32 C          63.4524   81.2857   12.8778 C.3     1  UNL1        0.1426
     33 C          61.2220   81.0678   14.1922 C.3     1  UNL1        0.1741
     34 O          62.7171   81.1890   14.1816 O.3     1  UNL1       -0.3511
     35 O          62.3825   85.4694    7.9857 O.3     1  UNL1       -0.4728
     36 C          61.0593   85.6150    7.2944 C.3     1  UNL1        0.2373
     37 C          59.8718   86.1344    8.0494 C.3     1  UNL1        0.1894
     38 O          59.0748   87.2793    7.4981 O.3     1  UNL1       -0.3471
     39 C          59.5643   88.6865    7.6720 C.3     1  UNL1        0.1743
@<TRIPOS>BOND
     1    33    34    1
     2    34    32    1
     3    32    31    1
     4    31    30    1
     5    30    24    1
     6    24    25   ar
     7    25    26   ar
     8    26    23    1
     9    23     1    1
    10     1     2   am
    11     2     3    2
    12     4     2    1
    13     4     5    1
    14     5     6    1
    15     6     7    1
    16     7     8    1
    17     9     8    1
    18     9    10    1
    19    10    11    1
    20    11    12    1
    21    12    13    1
    22    13    14   ar
    23    14    15   ar
    24    15    16   ar
    25    16    17   ar
    26    17    18   ar
    27     1    20    1
    28    20    21    1
    29    21    22    1
    30    26    27   ar
    31    27    28   ar
    32    28    35    1
    33    35    36    1
    34    36    37    1
    35    37    38    1
    36    38    39    1
    37    28    29   ar
    38    29    24   ar
    39     9     4    1
    40    18    13   ar
    41    22    20    1
    42    18     9    1
    43     6    19    1
