@<TRIPOS>MOLECULE
*****
 26 28 0 0 0
SMALL
GASTEIGER

@<TRIPOS>ATOM
      1 C          63.9622   90.5560   13.0024 C.ar    1  UNL1        0.0053
      2 C          65.0741   91.5538   12.8689 C.ar    1  UNL1        0.0456
      3 C          65.2680   92.2925   11.5779 C.ar    1  UNL1        0.1328
      4 N          64.3498   92.0335   10.4204 N.ar    1  UNL1       -0.2307
      5 C          63.2378   91.0356   10.5539 C.ar    1  UNL1        0.0827
      6 C          62.3196   90.7766    9.3964 C.ar    1  UNL1        0.0200
      7 C          61.2076   89.7788    9.5299 C.ar    1  UNL1        0.0129
      8 C          61.0138   89.0401   10.8209 C.ar    1  UNL1        0.0578
      9 CL         59.9017   88.0423   10.9544 Cl      1  UNL1       -0.0822
     10 C          61.9319   89.2992   11.9784 C.ar    1  UNL1        0.0129
     11 C          63.0439   90.2969   11.8449 C.ar    1  UNL1        0.0187
     12 C          63.7940   87.5959   15.6404 C.ar    1  UNL1       -0.0225
     13 C          63.3806   88.3399   16.8755 C.ar    1  UNL1       -0.0043
     14 C          63.1610   89.8227   16.8196 C.ar    1  UNL1       -0.0003
     15 C          63.3549   90.5615   15.5286 C.ar    1  UNL1       -0.0000
     16 C          63.7683   89.8173   14.2934 C.ar    1  UNL1       -0.0001
     17 C          63.9879   88.3346   14.3494 C.ar    1  UNL1       -0.0043
     18 C          63.1238   85.2546   16.5456 C.3     1  UNL1        0.0047
     19 C          64.0136   86.1130   15.6963 C.3     1  UNL1        0.0224
     20 C          65.1230   85.4887   14.9030 C.3     1  UNL1        0.0047
     21 C          65.9924   91.8129   14.0264 C.2     1  UNL1        0.0756
     22 O          67.1544   90.8992   14.2811 O.co2   1  UNL1       -0.5445
     23 O          65.7485   92.9857   14.9293 O.co2   1  UNL1       -0.5445
     24 N          66.3800   93.2904   11.4444 N.pl3   1  UNL1       -0.2897
     25 C          67.7000   92.8698   10.8691 C.3     1  UNL1        0.1136
     26 C          66.1722   94.7086   11.8862 C.3     1  UNL1        0.1136
@<TRIPOS>UNITY_ATOM_ATTR
22 1
charge -1
@<TRIPOS>BOND
     1    18    19    1
     2    19    20    1
     3    19    12    1
     4    12    13   ar
     5    13    14   ar
     6    14    15   ar
     7    15    16   ar
     8    16     1    1
     9     1     2   ar
    10     2    21    1
    11    21    22   ar
    12    21    23   ar
    13     2     3   ar
    14     3    24    1
    15    24    25    1
    16    24    26    1
    17     3     4   ar
    18     4     5   ar
    19     5     6   ar
    20     6     7   ar
    21     7     8   ar
    22     8     9    1
    23     8    10   ar
    24    10    11   ar
    25    16    17   ar
    26    17    12   ar
    27    11     1   ar
    28    11     5   ar
@<TRIPOS>MOLECULE
*****
 26 28 0 0 0
SMALL
GASTEIGER

@<TRIPOS>ATOM
      1 C          62.3843   87.0084   11.4200 C.ar    1  UNL1        0.0053
      2 C          62.6911   88.4077   11.8645 C.ar    1  UNL1        0.0456
      3 C          63.5041   88.6399   13.1035 C.ar    1  UNL1        0.1328
      4 N          64.0105   87.4727   13.8979 N.ar    1  UNL1       -0.2307
      5 C          63.7037   86.0732   13.4535 C.ar    1  UNL1        0.0827
      6 C          64.2101   84.9061   14.2479 C.ar    1  UNL1        0.0200
      7 C          63.9033   83.5067   13.8035 C.ar    1  UNL1        0.0129
      8 C          63.0903   83.2745   12.5645 C.ar    1  UNL1        0.0578
      9 CL         62.7836   81.8750   12.1200 Cl      1  UNL1       -0.0822
     10 C          62.5840   84.4417   11.7700 C.ar    1  UNL1        0.0129
     11 C          62.8907   85.8411   12.2145 C.ar    1  UNL1        0.0187
     12 C          61.3078   85.6982    7.8319 C.ar    1  UNL1       -0.0225
     13 C          59.9452   86.3118    7.7031 C.ar    1  UNL1       -0.0043
     14 C          59.3955   87.1576    8.8133 C.ar    1  UNL1       -0.0003
     15 C          60.2086   87.3898   10.0523 C.ar    1  UNL1       -0.0000
     16 C          61.5713   86.7762   10.1810 C.ar    1  UNL1       -0.0001
     17 C          62.1209   85.9304    9.0708 C.ar    1  UNL1       -0.0043
     18 C          60.9237   84.1419    5.7873 C.3     1  UNL1        0.0047
     19 C          61.8575   84.8524    6.7216 C.3     1  UNL1        0.0224
     20 C          63.3410   84.7172    6.5458 C.3     1  UNL1        0.0047
     21 C          62.1847   89.5750   11.0700 C.2     1  UNL1        0.0756
     22 O          60.9977   90.3537   11.5545 O.co2   1  UNL1       -0.5445
     23 O          62.8654   89.9636    9.7911 O.co2   1  UNL1       -0.5445
     24 N          63.8109   90.0394   13.5479 N.pl3   1  UNL1       -0.2897
     25 C          64.4441   91.0077   12.5933 C.3     1  UNL1        0.1136
     26 C          63.4843   90.4705   14.9470 C.3     1  UNL1        0.1136
@<TRIPOS>UNITY_ATOM_ATTR
22 1
charge -1
@<TRIPOS>BOND
     1    18    19    1
     2    19    20    1
     3    19    12    1
     4    12    13   ar
     5    13    14   ar
     6    14    15   ar
     7    15    16   ar
     8    16     1    1
     9     1     2   ar
    10     2    21    1
    11    21    22   ar
    12    21    23   ar
    13     2     3   ar
    14     3    24    1
    15    24    25    1
    16    24    26    1
    17     3     4   ar
    18     4     5   ar
    19     5     6   ar
    20     6     7   ar
    21     7     8   ar
    22     8     9    1
    23     8    10   ar
    24    10    11   ar
    25    16    17   ar
    26    17    12   ar
    27    11     1   ar
    28    11     5   ar
@<TRIPOS>MOLECULE
*****
 26 28 0 0 0
SMALL
GASTEIGER

@<TRIPOS>ATOM
      1 C          62.9665   85.6474   12.0247 C.ar    1  UNL1        0.0053
      2 C          63.5571   86.2728   13.2535 C.ar    1  UNL1        0.0456
      3 C          63.4116   87.7471   13.4886 C.ar    1  UNL1        0.1328
      4 N          62.6757   88.5960   12.4948 N.ar    1  UNL1       -0.2307
      5 C          62.0851   87.9707   11.2659 C.ar    1  UNL1        0.0827
      6 C          61.3491   88.8196   10.2722 C.ar    1  UNL1        0.0200
      7 C          60.7585   88.1942    9.0433 C.ar    1  UNL1        0.0129
      8 C          60.9039   86.7199    8.8082 C.ar    1  UNL1        0.0578
      9 CL         60.3133   86.0946    7.5793 Cl      1  UNL1       -0.0822
     10 C          61.6399   85.8710    9.8020 C.ar    1  UNL1        0.0129
     11 C          62.2305   86.4963   11.0308 C.ar    1  UNL1        0.0187
     12 C          62.6204   81.7224   12.4983 C.ar    1  UNL1       -0.0225
     13 C          63.4028   81.2245   11.3194 C.ar    1  UNL1       -0.0043
     14 C          64.0397   82.2009   10.3754 C.ar    1  UNL1       -0.0003
     15 C          63.8943   83.6752   10.6105 C.ar    1  UNL1       -0.0000
     16 C          63.1119   84.1731   11.7896 C.ar    1  UNL1       -0.0001
     17 C          62.4750   83.1967   12.7334 C.ar    1  UNL1       -0.0043
     18 C          60.6858   81.0882   14.1124 C.3     1  UNL1        0.0047
     19 C          61.9835   80.7460   13.4423 C.3     1  UNL1        0.0224
     20 C          62.6441   79.4274   13.7160 C.3     1  UNL1        0.0047
     21 C          64.2931   85.4238   14.2473 C.2     1  UNL1        0.0756
     22 O          65.7820   85.2718   14.1468 O.co2   1  UNL1       -0.5445
     23 O          63.5402   84.7269   15.3416 O.co2   1  UNL1       -0.5445
     24 N          64.0023   88.3724   14.7175 N.pl3   1  UNL1       -0.2897
     25 C          63.5665   87.9116   16.0769 C.3     1  UNL1        0.1136
     26 C          65.0286   89.4585   14.5871 C.3     1  UNL1        0.1136
@<TRIPOS>UNITY_ATOM_ATTR
22 1
charge -1
@<TRIPOS>BOND
     1    18    19    1
     2    19    20    1
     3    19    12    1
     4    12    13   ar
     5    13    14   ar
     6    14    15   ar
     7    15    16   ar
     8    16     1    1
     9     1     2   ar
    10     2    21    1
    11    21    22   ar
    12    21    23   ar
    13     2     3   ar
    14     3    24    1
    15    24    25    1
    16    24    26    1
    17     3     4   ar
    18     4     5   ar
    19     5     6   ar
    20     6     7   ar
    21     7     8   ar
    22     8     9    1
    23     8    10   ar
    24    10    11   ar
    25    16    17   ar
    26    17    12   ar
    27    11     1   ar
    28    11     5   ar
@<TRIPOS>MOLECULE
*****
 26 28 0 0 0
SMALL
GASTEIGER

@<TRIPOS>ATOM
      1 C          62.9795   86.7596   12.7628 C.ar    1  UNL1        0.0053
      2 C          63.6545   87.6391   13.7732 C.ar    1  UNL1        0.0456
      3 C          63.7132   89.1222   13.5564 C.ar    1  UNL1        0.1328
      4 N          63.0970   89.7258   12.3293 N.ar    1  UNL1       -0.2307
      5 C          62.4219   88.8463   11.3189 C.ar    1  UNL1        0.0827
      6 C          61.8057   89.4500   10.0918 C.ar    1  UNL1        0.0200
      7 C          61.1307   88.5705    9.0814 C.ar    1  UNL1        0.0129
      8 C          61.0720   87.0874    9.2982 C.ar    1  UNL1        0.0578
      9 CL         60.3969   86.2079    8.2877 Cl      1  UNL1       -0.0822
     10 C          61.6882   86.4838   10.5253 C.ar    1  UNL1        0.0129
     11 C          62.3632   87.3632   11.5356 C.ar    1  UNL1        0.0187
     12 C          63.2136   82.8575   12.0781 C.ar    1  UNL1       -0.0225
     13 C          62.8032   82.3103   13.4131 C.ar    1  UNL1       -0.0043
     14 C          62.4515   83.2462   14.5313 C.ar    1  UNL1       -0.0003
     15 C          62.5103   84.7293   14.3146 C.ar    1  UNL1       -0.0000
     16 C          62.9207   85.2765   12.9796 C.ar    1  UNL1       -0.0001
     17 C          63.2723   84.3406   11.8614 C.ar    1  UNL1       -0.0043
     18 C          62.9861   80.5382   10.9295 C.3     1  UNL1        0.0047
     19 C          63.5652   81.9216   10.9598 C.3     1  UNL1        0.0224
     20 C          64.4959   82.3691    9.8720 C.3     1  UNL1        0.0047
     21 C          64.2707   87.0355   15.0004 C.2     1  UNL1        0.0756
     22 O          65.5848   86.3184   14.9045 O.co2   1  UNL1       -0.5445
     23 O          63.5730   87.1489   16.3233 O.co2   1  UNL1       -0.5445
     24 N          64.3883   90.0016   14.5669 N.pl3   1  UNL1       -0.2897
     25 C          63.6865   90.3498   15.8461 C.3     1  UNL1        0.1136
     26 C          65.7650   90.5329   14.2981 C.3     1  UNL1        0.1136
@<TRIPOS>UNITY_ATOM_ATTR
22 1
charge -1
@<TRIPOS>BOND
     1    18    19    1
     2    19    20    1
     3    19    12    1
     4    12    13   ar
     5    13    14   ar
     6    14    15   ar
     7    15    16   ar
     8    16     1    1
     9     1     2   ar
    10     2    21    1
    11    21    22   ar
    12    21    23   ar
    13     2     3   ar
    14     3    24    1
    15    24    25    1
    16    24    26    1
    17     3     4   ar
    18     4     5   ar
    19     5     6   ar
    20     6     7   ar
    21     7     8   ar
    22     8     9    1
    23     8    10   ar
    24    10    11   ar
    25    16    17   ar
    26    17    12   ar
    27    11     1   ar
    28    11     5   ar
@<TRIPOS>MOLECULE
*****
 26 28 0 0 0
SMALL
GASTEIGER

@<TRIPOS>ATOM
      1 C          63.4752   87.7037   13.3508 C.ar    1  UNL1        0.0053
      2 C          63.7597   86.3275   13.8751 C.ar    1  UNL1        0.0456
      3 C          63.3435   85.1227   13.0844 C.ar    1  UNL1        0.1328
      4 N          62.6428   85.2941   11.7693 N.ar    1  UNL1       -0.2307
      5 C          62.3582   86.6704   11.2449 C.ar    1  UNL1        0.0827
      6 C          61.6575   86.8418    9.9298 C.ar    1  UNL1        0.0200
      7 C          61.3730   88.2180    9.4054 C.ar    1  UNL1        0.0129
      8 C          61.7892   89.4228   10.1961 C.ar    1  UNL1        0.0578
      9 CL         61.5047   90.7991    9.6716 Cl      1  UNL1       -0.0822
     10 C          62.4899   89.2514   11.5112 C.ar    1  UNL1        0.0129
     11 C          62.7745   87.8752   12.0356 C.ar    1  UNL1        0.0187
     12 C          65.4556   90.9577   14.4642 C.ar    1  UNL1       -0.0225
     13 C          64.7238   91.3181   15.7229 C.ar    1  UNL1       -0.0043
     14 C          63.5758   90.4738   16.1910 C.ar    1  UNL1       -0.0003
     15 C          63.1596   89.2690   15.4003 C.ar    1  UNL1       -0.0000
     16 C          63.8914   88.9085   14.1415 C.ar    1  UNL1       -0.0001
     17 C          65.0394   89.7529   13.6734 C.ar    1  UNL1       -0.0043
     18 C          67.8016   91.9947   14.8781 C.3     1  UNL1        0.0047
     19 C          66.6037   91.8020   13.9961 C.3     1  UNL1        0.0224
     20 C          66.5539   92.4537   12.6459 C.3     1  UNL1        0.0047
     21 C          64.4605   86.1560   15.1903 C.2     1  UNL1        0.0756
     22 O          63.6694   86.1360   16.4646 O.co2   1  UNL1       -0.5445
     23 O          65.9522   86.0046   15.2312 O.co2   1  UNL1       -0.5445
     24 N          63.6281   83.7464   13.6089 N.pl3   1  UNL1       -0.2897
     25 C          62.8570   83.2163   14.7812 C.3     1  UNL1        0.1136
     26 C          64.6837   82.9004   12.9610 C.3     1  UNL1        0.1136
@<TRIPOS>UNITY_ATOM_ATTR
22 1
charge -1
@<TRIPOS>BOND
     1    18    19    1
     2    19    20    1
     3    19    12    1
     4    12    13   ar
     5    13    14   ar
     6    14    15   ar
     7    15    16   ar
     8    16     1    1
     9     1     2   ar
    10     2    21    1
    11    21    22   ar
    12    21    23   ar
    13     2     3   ar
    14     3    24    1
    15    24    25    1
    16    24    26    1
    17     3     4   ar
    18     4     5   ar
    19     5     6   ar
    20     6     7   ar
    21     7     8   ar
    22     8     9    1
    23     8    10   ar
    24    10    11   ar
    25    16    17   ar
    26    17    12   ar
    27    11     1   ar
    28    11     5   ar
@<TRIPOS>MOLECULE
*****
 26 28 0 0 0
SMALL
GASTEIGER

@<TRIPOS>ATOM
      1 C          62.9623   86.6216   12.1869 C.ar    1  UNL1        0.0053
      2 C          63.1930   87.9366   12.8706 C.ar    1  UNL1        0.0456
      3 C          63.8037   87.9730   14.2402 C.ar    1  UNL1        0.1328
      4 N          64.1837   86.6943   14.9261 N.ar    1  UNL1       -0.2307
      5 C          63.9531   85.3791   14.2424 C.ar    1  UNL1        0.0827
      6 C          64.3331   84.1005   14.9283 C.ar    1  UNL1        0.0200
      7 C          64.1024   82.7854   14.2446 C.ar    1  UNL1        0.0129
      8 C          63.4917   82.7491   12.8750 C.ar    1  UNL1        0.0578
      9 CL         63.2610   81.4340   12.1913 Cl      1  UNL1       -0.0822
     10 C          63.1117   84.0278   12.1891 C.ar    1  UNL1        0.0129
     11 C          63.3423   85.3428   12.8728 C.ar    1  UNL1        0.0187
     12 C          60.8280   87.6534    9.0041 C.ar    1  UNL1       -0.0225
     13 C          61.1302   86.5126    8.0782 C.ar    1  UNL1       -0.0043
     14 C          62.0431   85.4081    8.5219 C.ar    1  UNL1       -0.0003
     15 C          62.6538   85.4445    9.8914 C.ar    1  UNL1       -0.0000
     16 C          62.3516   86.5853   10.8174 C.ar    1  UNL1       -0.0001
     17 C          61.4387   87.6897   10.3737 C.ar    1  UNL1       -0.0043
     18 C          59.0866   88.5937    7.3208 C.3     1  UNL1        0.0047
     19 C          59.9151   88.7578    8.5605 C.3     1  UNL1        0.0224
     20 C          59.8306   90.0263    9.3565 C.3     1  UNL1        0.0047
     21 C          62.8130   89.2154   12.1847 C.2     1  UNL1        0.0756
     22 O          63.7272   89.8165   11.1586 O.co2   1  UNL1       -0.5445
     23 O          61.5188   89.8931   12.5250 O.co2   1  UNL1       -0.5445
     24 N          64.0344   89.2881   14.9239 N.pl3   1  UNL1       -0.2897
     25 C          65.0640   90.2399   14.3910 C.3     1  UNL1        0.1136
     26 C          63.2355   89.6513   16.1403 C.3     1  UNL1        0.1136
@<TRIPOS>UNITY_ATOM_ATTR
22 1
charge -1
@<TRIPOS>BOND
     1    18    19    1
     2    19    20    1
     3    19    12    1
     4    12    13   ar
     5    13    14   ar
     6    14    15   ar
     7    15    16   ar
     8    16     1    1
     9     1     2   ar
    10     2    21    1
    11    21    22   ar
    12    21    23   ar
    13     2     3   ar
    14     3    24    1
    15    24    25    1
    16    24    26    1
    17     3     4   ar
    18     4     5   ar
    19     5     6   ar
    20     6     7   ar
    21     7     8   ar
    22     8     9    1
    23     8    10   ar
    24    10    11   ar
    25    16    17   ar
    26    17    12   ar
    27    11     1   ar
    28    11     5   ar
@<TRIPOS>MOLECULE
*****
 26 28 0 0 0
SMALL
GASTEIGER

@<TRIPOS>ATOM
      1 C          62.6267   88.2011   11.9894 C.ar    1  UNL1        0.0053
      2 C          61.6843   88.5990   10.8924 C.ar    1  UNL1        0.0456
      3 C          61.0274   87.5464   10.0494 C.ar    1  UNL1        0.1328
      4 N          61.3129   86.0959   10.3035 N.ar    1  UNL1       -0.2307
      5 C          62.2553   85.6980   11.4007 C.ar    1  UNL1        0.0827
      6 C          62.5408   84.2475   11.6548 C.ar    1  UNL1        0.0200
      7 C          63.4832   83.8496   12.7518 C.ar    1  UNL1        0.0129
      8 C          64.1401   84.9022   13.5948 C.ar    1  UNL1        0.0578
      9 CL         65.0825   84.5043   14.6919 Cl      1  UNL1       -0.0822
     10 C          63.8546   86.3527   13.3407 C.ar    1  UNL1        0.0129
     11 C          62.9122   86.7506   12.2436 C.ar    1  UNL1        0.0187
     12 C          64.7009   91.4227   13.0233 C.ar    1  UNL1       -0.0225
     13 C          64.5974   91.3588   14.5183 C.ar    1  UNL1       -0.0043
     14 C          63.8370   90.2423   15.1705 C.ar    1  UNL1       -0.0003
     15 C          63.1801   89.1897   14.3275 C.ar    1  UNL1       -0.0000
     16 C          63.2836   89.2537   12.8324 C.ar    1  UNL1       -0.0001
     17 C          64.0440   90.3701   12.1803 C.ar    1  UNL1       -0.0043
     18 C          66.3474   93.4251   13.1958 C.3     1  UNL1        0.0047
     19 C          65.4613   92.5392   12.3711 C.3     1  UNL1        0.0224
     20 C          65.3357   92.7698   10.8943 C.3     1  UNL1        0.0047
     21 C          61.3988   90.0495   10.6382 C.2     1  UNL1        0.0756
     22 O          60.1505   90.6754   11.1861 O.co2   1  UNL1       -0.5445
     23 O          62.3615   90.8741    9.8363 O.co2   1  UNL1       -0.5445
     24 N          60.0850   87.9443    8.9523 N.pl3   1  UNL1       -0.2897
     25 C          59.0340   86.9834    8.4812 C.3     1  UNL1        0.1136
     26 C          60.1937   89.3031    8.3264 C.3     1  UNL1        0.1136
@<TRIPOS>UNITY_ATOM_ATTR
22 1
charge -1
@<TRIPOS>BOND
     1    18    19    1
     2    19    20    1
     3    19    12    1
     4    12    13   ar
     5    13    14   ar
     6    14    15   ar
     7    15    16   ar
     8    16     1    1
     9     1     2   ar
    10     2    21    1
    11    21    22   ar
    12    21    23   ar
    13     2     3   ar
    14     3    24    1
    15    24    25    1
    16    24    26    1
    17     3     4   ar
    18     4     5   ar
    19     5     6   ar
    20     6     7   ar
    21     7     8   ar
    22     8     9    1
    23     8    10   ar
    24    10    11   ar
    25    16    17   ar
    26    17    12   ar
    27    11     1   ar
    28    11     5   ar
@<TRIPOS>MOLECULE
*****
 26 28 0 0 0
SMALL
GASTEIGER

@<TRIPOS>ATOM
      1 C          62.9180   86.2601   11.5523 C.ar    1  UNL1        0.0053
      2 C          63.1930   85.0850   12.4431 C.ar    1  UNL1        0.0456
      3 C          63.6836   85.3041   13.8435 C.ar    1  UNL1        0.1328
      4 N          63.8993   86.6982   14.3532 N.ar    1  UNL1       -0.2307
      5 C          63.6243   87.8734   13.4624 C.ar    1  UNL1        0.0827
      6 C          63.8400   89.2675   13.9720 C.ar    1  UNL1        0.0200
      7 C          63.5651   90.4426   13.0812 C.ar    1  UNL1        0.0129
      8 C          63.0744   90.2235   11.6808 C.ar    1  UNL1        0.0578
      9 CL         62.7995   91.3987   10.7900 Cl      1  UNL1       -0.0822
     10 C          62.8587   88.8294   11.1711 C.ar    1  UNL1        0.0129
     11 C          63.1337   87.6543   12.0619 C.ar    1  UNL1        0.0187
     12 C          60.6973   86.5186    8.2733 C.ar    1  UNL1       -0.0225
     13 C          61.4460   85.6029    7.3509 C.ar    1  UNL1       -0.0043
     14 C          62.6855   84.9062    7.8290 C.ar    1  UNL1       -0.0003
     15 C          63.1761   85.1252    9.2294 C.ar    1  UNL1       -0.0000
     16 C          62.4274   86.0410   10.1518 C.ar    1  UNL1       -0.0001
     17 C          61.1880   86.7377    9.6737 C.ar    1  UNL1       -0.0043
     18 C          59.5251   88.6478    7.3554 C.3     1  UNL1        0.0047
     19 C          59.4579   87.2153    7.7952 C.3     1  UNL1        0.0224
     20 C          58.1513   86.4795    7.7570 C.3     1  UNL1        0.0047
     21 C          62.9773   83.6908   11.9334 C.2     1  UNL1        0.0756
     22 O          61.6930   82.9744   12.2293 O.co2   1  UNL1       -0.5445
     23 O          64.0458   83.0130   11.1280 O.co2   1  UNL1       -0.5445
     24 N          63.9586   84.1289   14.7343 N.pl3   1  UNL1       -0.2897
     25 C          62.8743   83.5883   15.6186 C.3     1  UNL1        0.1136
     26 C          65.3177   83.4945   14.7408 C.3     1  UNL1        0.1136
@<TRIPOS>UNITY_ATOM_ATTR
22 1
charge -1
@<TRIPOS>BOND
     1    18    19    1
     2    19    20    1
     3    19    12    1
     4    12    13   ar
     5    13    14   ar
     6    14    15   ar
     7    15    16   ar
     8    16     1    1
     9     1     2   ar
    10     2    21    1
    11    21    22   ar
    12    21    23   ar
    13     2     3   ar
    14     3    24    1
    15    24    25    1
    16    24    26    1
    17     3     4   ar
    18     4     5   ar
    19     5     6   ar
    20     6     7   ar
    21     7     8   ar
    22     8     9    1
    23     8    10   ar
    24    10    11   ar
    25    16    17   ar
    26    17    12   ar
    27    11     1   ar
    28    11     5   ar
@<TRIPOS>MOLECULE
*****
 26 28 0 0 0
SMALL
GASTEIGER

@<TRIPOS>ATOM
      1 C          62.4356   88.2732   11.5250 C.ar    1  UNL1        0.0053
      2 C          61.4864   88.5894   10.4074 C.ar    1  UNL1        0.0456
      3 C          60.8198   87.4778    9.6524 C.ar    1  UNL1        0.1328
      4 N          61.1025   86.0500   10.0149 N.ar    1  UNL1       -0.2307
      5 C          62.0517   85.7338   11.1325 C.ar    1  UNL1        0.0827
      6 C          62.3343   84.3060   11.4951 C.ar    1  UNL1        0.0200
      7 C          63.2835   83.9897   12.6126 C.ar    1  UNL1        0.0129
      8 C          63.9501   85.1013   13.3677 C.ar    1  UNL1        0.0578
      9 CL         64.8993   84.7850   14.4853 Cl      1  UNL1       -0.0822
     10 C          63.6675   86.5291   13.0051 C.ar    1  UNL1        0.0129
     11 C          62.7183   86.8453   11.8876 C.ar    1  UNL1        0.0187
     12 C          63.7188   90.5202   14.5340 C.ar    1  UNL1       -0.0225
     13 C          64.4353   91.6079   13.7901 C.ar    1  UNL1       -0.0043
     14 C          64.4853   91.5841   12.2911 C.ar    1  UNL1       -0.0003
     15 C          63.8187   90.4725   11.5360 C.ar    1  UNL1       -0.0000
     16 C          63.1022   89.3848   12.2800 C.ar    1  UNL1       -0.0001
     17 C          63.0522   89.4086   13.7790 C.ar    1  UNL1       -0.0043
     18 C          64.1886   91.7353   16.7819 C.3     1  UNL1        0.0047
     19 C          63.6688   90.5440   16.0330 C.3     1  UNL1        0.0224
     20 C          63.0992   89.3767   16.7831 C.3     1  UNL1        0.0047
     21 C          61.2037   90.0173   10.0449 C.2     1  UNL1        0.0756
     22 O          62.1938   90.7938    9.2283 O.co2   1  UNL1       -0.5445
     23 O          59.9310   90.6685   10.4988 O.co2   1  UNL1       -0.5445
     24 N          59.8706   87.7941    8.5348 N.pl3   1  UNL1       -0.2897
     25 C          58.8125   86.8043    8.1468 C.3     1  UNL1        0.1136
     26 C          59.9795   89.1002    7.8053 C.3     1  UNL1        0.1136
@<TRIPOS>UNITY_ATOM_ATTR
22 1
charge -1
@<TRIPOS>BOND
     1    18    19    1
     2    19    20    1
     3    19    12    1
     4    12    13   ar
     5    13    14   ar
     6    14    15   ar
     7    15    16   ar
     8    16     1    1
     9     1     2   ar
    10     2    21    1
    11    21    22   ar
    12    21    23   ar
    13     2     3   ar
    14     3    24    1
    15    24    25    1
    16    24    26    1
    17     3     4   ar
    18     4     5   ar
    19     5     6   ar
    20     6     7   ar
    21     7     8   ar
    22     8     9    1
    23     8    10   ar
    24    10    11   ar
    25    16    17   ar
    26    17    12   ar
    27    11     1   ar
    28    11     5   ar
