@<TRIPOS>MOLECULE
*****
 40 43 0 0 0
SMALL
GASTEIGER

@<TRIPOS>ATOM
      1 N          64.5068   91.2044   12.6603 N.ar    1  UNL1       -0.2470
      2 C          63.5350   90.7371   11.6176 C.ar    1  UNL1        0.2657
      3 O          63.0872   91.6748   10.5358 O.2     1  UNL1       -0.2668
      4 C          63.0111   89.3322   11.6566 C.ar    1  UNL1        0.0736
      5 C          63.4590   88.3945   12.7383 C.ar    1  UNL1        0.0847
      6 N          64.4307   88.8617   13.7811 N.ar    1  UNL1       -0.2755
      7 C          64.9546   90.2667   13.7420 C.ar    1  UNL1        0.3341
      8 O          65.9264   90.7340   14.7848 O.2     1  UNL1       -0.2462
      9 C          62.0393   88.8649   10.6138 C.ar    1  UNL1        0.0060
     10 C          60.9986   89.8057   10.0832 C.ar    1  UNL1       -0.0000
     11 C          60.0268   89.3385    9.0405 C.ar    1  UNL1       -0.0019
     12 C          60.0958   87.9303    8.5283 C.ar    1  UNL1        0.0070
     13 C          61.1365   86.9894    9.0589 C.ar    1  UNL1       -0.0019
     14 C          62.1083   87.4567   10.1017 C.ar    1  UNL1       -0.0000
     15 C          59.1240   87.4630    7.4856 C.3     1  UNL1        0.1636
     16 O          58.1109   86.4096    7.8230 O.3     1  UNL1       -0.3772
     17 H          58.5644   85.5725    8.0089 H       1  UNL1        0.2109
     18 C          65.0308   92.6094   12.6213 C.3     1  UNL1        0.1334
     19 N          67.4439   92.7948   13.5660 N.3     1  UNL1       -0.3172
     20 C          66.4943   92.8584   12.4066 C.3     1  UNL1        0.0968
     21 H          66.9272   92.5724   14.4169 H       1  UNL1        0.1192
     22 H          67.9075   93.6966   13.6757 H       1  UNL1        0.1192
     23 C          67.0082   93.1711   11.0325 C.ar    1  UNL1       -0.0063
     24 C          66.6078   94.4477   10.3545 C.ar    1  UNL1       -0.0029
     25 C          67.1217   94.7603    8.9804 C.ar    1  UNL1       -0.0003
     26 C          68.0362   93.7963    8.2844 C.ar    1  UNL1       -0.0000
     27 C          68.4366   92.5197    8.9624 C.ar    1  UNL1       -0.0003
     28 C          67.9226   92.2070   10.3365 C.ar    1  UNL1       -0.0029
     29 C          64.8785   87.9240   14.8628 C.3     1  UNL1        0.1394
     30 C          63.8634   87.1688   15.6683 C.ar    1  UNL1        0.0319
     31 C          63.1496   87.8461   16.8005 C.ar    1  UNL1        0.1379
     32 F          63.4510   89.2788   17.1271 F       1  UNL1       -0.2044
     33 C          62.1344   87.0909   17.6061 C.ar    1  UNL1        0.0294
     34 C          61.8330   85.6582   17.2795 C.ar    1  UNL1        0.0022
     35 C          62.5467   84.9808   16.1474 C.ar    1  UNL1        0.0037
     36 C          63.5619   85.7361   15.3418 C.ar    1  UNL1        0.0714
     37 C          64.2756   85.0587   14.2097 C.3     1  UNL1        0.4184
     38 F          64.9894   84.3814   13.0776 F       1  UNL1       -0.1659
     39 F          63.0440   85.1780   13.3619 F       1  UNL1       -0.1659
     40 F          65.5073   84.9395   15.0575 F       1  UNL1       -0.1659
@<TRIPOS>BOND
     1    20    19    1
     2    20    18    1
     3    18     1    1
     4     1     2   ar
     5     2     3    2
     6     2     4   ar
     7     4     9    1
     8     9    10   ar
     9    10    11   ar
    10    11    12   ar
    11    12    15    1
    12    15    16    1
    13    12    13   ar
    14    13    14   ar
    15     4     5   ar
    16     5     6   ar
    17     6    29    1
    18    29    30    1
    19    30    31   ar
    20    31    32    1
    21    31    33   ar
    22    33    34   ar
    23    34    35   ar
    24    35    36   ar
    25    36    37    1
    26    37    38    1
    27    37    39    1
    28    37    40    1
    29     6     7   ar
    30     7     8    2
    31    20    23    1
    32    23    24   ar
    33    24    25   ar
    34    25    26   ar
    35    26    27   ar
    36    27    28   ar
    37     7     1   ar
    38    28    23   ar
    39    14     9   ar
    40    36    30   ar
    41    19    21    1
    42    19    22    1
    43    16    17    1
@<TRIPOS>MOLECULE
*****
 40 43 0 0 0
SMALL
GASTEIGER

@<TRIPOS>ATOM
      1 N          63.6341   88.8289   13.4672 N.ar    1  UNL1       -0.2470
      2 C          62.7196   88.9579   12.2852 C.ar    1  UNL1        0.2657
      3 O          62.2005   90.3062   11.8822 O.2     1  UNL1       -0.2668
      4 C          62.3243   87.7385   11.5063 C.ar    1  UNL1        0.0736
      5 C          62.8435   86.3901   11.9093 C.ar    1  UNL1        0.0847
      6 N          63.7579   86.2612   13.0913 N.ar    1  UNL1       -0.2755
      7 C          64.1532   87.4806   13.8702 C.ar    1  UNL1        0.3341
      8 O          65.0677   87.3516   15.0523 O.2     1  UNL1       -0.2462
      9 C          61.4098   87.8674   10.3242 C.ar    1  UNL1        0.0060
     10 C          60.8342   86.6391    9.6839 C.ar    1  UNL1       -0.0000
     11 C          59.9198   86.7680    8.5019 C.ar    1  UNL1       -0.0019
     12 C          59.5809   88.1252    7.9602 C.ar    1  UNL1        0.0070
     13 C          60.1565   89.3534    8.6006 C.ar    1  UNL1       -0.0019
     14 C          61.0710   89.2245    9.7826 C.ar    1  UNL1       -0.0000
     15 C          58.6664   88.2540    6.7782 C.3     1  UNL1        0.1636
     16 O          58.6556   89.5194    5.9728 O.3     1  UNL1       -0.3772
     17 H          58.3190   90.2472    6.5185 H       1  UNL1        0.2109
     18 C          64.0295   90.0483   14.2462 C.3     1  UNL1        0.1334
     19 N          64.5668   91.5911   12.2260 N.3     1  UNL1       -0.3172
     20 C          64.8857   91.1013   13.6075 C.3     1  UNL1        0.0968
     21 H          63.7426   91.1039   11.8744 H       1  UNL1        0.1192
     22 H          65.3586   91.4086   11.6094 H       1  UNL1        0.1192
     23 C          66.0610   91.6646   14.3503 C.ar    1  UNL1       -0.0063
     24 C          65.8749   92.2404   15.7227 C.ar    1  UNL1       -0.0029
     25 C          67.0501   92.8036   16.4654 C.ar    1  UNL1       -0.0003
     26 C          68.4114   92.7910   15.8356 C.ar    1  UNL1       -0.0000
     27 C          68.5975   92.2152   14.4632 C.ar    1  UNL1       -0.0003
     28 C          67.4223   91.6520   13.7205 C.ar    1  UNL1       -0.0029
     29 C          64.2771   84.9128   13.4943 C.3     1  UNL1        0.1394
     30 C          63.3534   83.7313   13.5228 C.ar    1  UNL1        0.0319
     31 C          62.5356   83.4480   14.7480 C.ar    1  UNL1        0.1379
     32 F          62.6416   84.3462   15.9447 F       1  UNL1       -0.2044
     33 C          61.6119   82.2665   14.7765 C.ar    1  UNL1        0.0294
     34 C          61.5059   81.3683   13.5798 C.ar    1  UNL1        0.0022
     35 C          62.3237   81.6516   12.3547 C.ar    1  UNL1        0.0037
     36 C          63.2474   82.8331   12.3261 C.ar    1  UNL1        0.0714
     37 C          64.0651   83.1164   11.1010 C.3     1  UNL1        0.4184
     38 F          64.8828   83.3997    9.8758 F       1  UNL1       -0.1659
     39 F          65.2035   82.3290   11.6787 F       1  UNL1       -0.1659
     40 F          62.9267   83.9039   10.5232 F       1  UNL1       -0.1659
@<TRIPOS>BOND
     1    20    19    1
     2    20    18    1
     3    18     1    1
     4     1     2   ar
     5     2     3    2
     6     2     4   ar
     7     4     9    1
     8     9    10   ar
     9    10    11   ar
    10    11    12   ar
    11    12    15    1
    12    15    16    1
    13    12    13   ar
    14    13    14   ar
    15     4     5   ar
    16     5     6   ar
    17     6    29    1
    18    29    30    1
    19    30    31   ar
    20    31    32    1
    21    31    33   ar
    22    33    34   ar
    23    34    35   ar
    24    35    36   ar
    25    36    37    1
    26    37    38    1
    27    37    39    1
    28    37    40    1
    29     6     7   ar
    30     7     8    2
    31    20    23    1
    32    23    24   ar
    33    24    25   ar
    34    25    26   ar
    35    26    27   ar
    36    27    28   ar
    37     7     1   ar
    38    28    23   ar
    39    14     9   ar
    40    36    30   ar
    41    19    21    1
    42    19    22    1
    43    16    17    1
@<TRIPOS>MOLECULE
*****
 40 43 0 0 0
SMALL
GASTEIGER

@<TRIPOS>ATOM
      1 N          63.9272   87.9206   13.9544 N.ar    1  UNL1       -0.2470
      2 C          63.0272   88.2819   12.8101 C.ar    1  UNL1        0.2657
      3 O          62.5164   89.6854   12.6719 O.2     1  UNL1       -0.2668
      4 C          62.6380   87.2396   11.8042 C.ar    1  UNL1        0.0736
      5 C          63.1488   85.8360   11.9424 C.ar    1  UNL1        0.0847
      6 N          64.0488   85.4748   13.0867 N.ar    1  UNL1       -0.2755
      7 C          64.4380   86.5171   14.0927 C.ar    1  UNL1        0.3341
      8 O          65.3381   86.1559   15.2371 O.2     1  UNL1       -0.2462
      9 C          61.7379   87.6008   10.6598 C.ar    1  UNL1        0.0060
     10 C          61.5854   89.0355   10.2496 C.ar    1  UNL1       -0.0000
     11 C          60.6854   89.3968    9.1053 C.ar    1  UNL1       -0.0019
     12 C          59.9378   88.3233    8.3711 C.ar    1  UNL1        0.0070
     13 C          60.0904   86.8885    8.7814 C.ar    1  UNL1       -0.0019
     14 C          60.9904   86.5273    9.9258 C.ar    1  UNL1       -0.0000
     15 C          59.0378   88.6845    7.2269 C.3     1  UNL1        0.1636
     16 O          59.3587   89.8699    6.3656 O.3     1  UNL1       -0.3772
     17 H          59.2856   90.6813    6.8920 H       1  UNL1        0.2109
     18 C          64.3165   88.9629   14.9605 C.3     1  UNL1        0.1334
     19 N          62.9795   91.1890   15.0451 N.3     1  UNL1       -0.3172
     20 C          64.1936   90.4182   14.6186 C.3     1  UNL1        0.0968
     21 H          62.3459   90.5716   15.5528 H       1  UNL1        0.1192
     22 H          62.5055   91.5599   14.2216 H       1  UNL1        0.1192
     23 C          65.2848   91.1029   13.8500 C.ar    1  UNL1       -0.0063
     24 C          66.6742   91.1626   14.4121 C.ar    1  UNL1       -0.0029
     25 C          67.7653   91.8472   13.6435 C.ar    1  UNL1       -0.0003
     26 C          67.4671   92.4721   12.3129 C.ar    1  UNL1       -0.0000
     27 C          66.0777   92.4124   11.7509 C.ar    1  UNL1       -0.0003
     28 C          64.9865   91.7278   12.5194 C.ar    1  UNL1       -0.0029
     29 C          64.5596   84.0712   13.2250 C.3     1  UNL1        0.1394
     30 C          63.5954   82.9232   13.2701 C.ar    1  UNL1        0.0319
     31 C          63.5974   81.8985   12.1745 C.ar    1  UNL1        0.1379
     32 F          64.5637   82.0220   11.0339 F       1  UNL1       -0.2044
     33 C          62.6331   80.7505   12.2196 C.ar    1  UNL1        0.0294
     34 C          61.6667   80.6270   13.3602 C.ar    1  UNL1        0.0022
     35 C          61.6647   81.6516   14.4557 C.ar    1  UNL1        0.0037
     36 C          62.6290   82.7997   14.4107 C.ar    1  UNL1        0.0714
     37 C          62.6270   83.8243   15.5062 C.3     1  UNL1        0.4184
     38 F          62.6249   84.8489   16.6017 F       1  UNL1       -0.1659
     39 F          63.9160   83.2653   16.0314 F       1  UNL1       -0.1659
     40 F          61.3380   84.3833   14.9809 F       1  UNL1       -0.1659
@<TRIPOS>BOND
     1    20    19    1
     2    20    18    1
     3    18     1    1
     4     1     2   ar
     5     2     3    2
     6     2     4   ar
     7     4     9    1
     8     9    10   ar
     9    10    11   ar
    10    11    12   ar
    11    12    15    1
    12    15    16    1
    13    12    13   ar
    14    13    14   ar
    15     4     5   ar
    16     5     6   ar
    17     6    29    1
    18    29    30    1
    19    30    31   ar
    20    31    32    1
    21    31    33   ar
    22    33    34   ar
    23    34    35   ar
    24    35    36   ar
    25    36    37    1
    26    37    38    1
    27    37    39    1
    28    37    40    1
    29     6     7   ar
    30     7     8    2
    31    20    23    1
    32    23    24   ar
    33    24    25   ar
    34    25    26   ar
    35    26    27   ar
    36    27    28   ar
    37     7     1   ar
    38    28    23   ar
    39    14     9   ar
    40    36    30   ar
    41    19    21    1
    42    19    22    1
    43    16    17    1
@<TRIPOS>MOLECULE
*****
 40 43 0 0 0
SMALL
GASTEIGER

@<TRIPOS>ATOM
      1 N          64.0789   90.8993   12.5849 N.ar    1  UNL1       -0.2470
      2 C          63.2067   90.3112   11.5157 C.ar    1  UNL1        0.2657
      3 O          62.6839   91.1813   10.4114 O.2     1  UNL1       -0.2668
      4 C          62.8573   88.8529   11.5508 C.ar    1  UNL1        0.0736
      5 C          63.3801   87.9828   12.6552 C.ar    1  UNL1        0.0847
      6 N          64.2523   88.5709   13.7244 N.ar    1  UNL1       -0.2755
      7 C          64.6017   90.0292   13.6893 C.ar    1  UNL1        0.3341
      8 O          65.4739   90.6175   14.7586 O.2     1  UNL1       -0.2462
      9 C          61.9851   88.2646   10.4815 C.ar    1  UNL1        0.0060
     10 C          62.4047   87.0077    9.7787 C.ar    1  UNL1       -0.0000
     11 C          61.5326   86.4194    8.7094 C.ar    1  UNL1       -0.0019
     12 C          60.2408   87.0881    8.3430 C.ar    1  UNL1        0.0070
     13 C          59.8212   88.3450    9.0459 C.ar    1  UNL1       -0.0019
     14 C          60.6934   88.9333   10.1152 C.ar    1  UNL1       -0.0000
     15 C          59.3686   86.4998    7.2738 C.3     1  UNL1        0.1636
     16 O          57.9160   86.2443    7.5471 O.3     1  UNL1       -0.3772
     17 H          57.8308   85.5546    8.2238 H       1  UNL1        0.2109
     18 C          64.4283   92.3577   12.5499 C.3     1  UNL1        0.1334
     19 N          66.1511   93.1908   10.7928 N.3     1  UNL1       -0.3172
     20 C          65.8222   92.7868   12.1994 C.3     1  UNL1        0.0968
     21 H          65.3156   93.1144   10.2128 H       1  UNL1        0.1192
     22 H          66.8782   92.5777   10.4241 H       1  UNL1        0.1192
     23 C          66.8872   92.8117   13.2554 C.ar    1  UNL1       -0.0063
     24 C          68.1015   91.9423   13.1167 C.ar    1  UNL1       -0.0029
     25 C          69.1664   91.9673   14.1727 C.ar    1  UNL1       -0.0003
     26 C          69.0170   92.8618   15.3675 C.ar    1  UNL1       -0.0000
     27 C          67.8026   93.7312   15.5063 C.ar    1  UNL1       -0.0003
     28 C          66.7377   93.7062   14.4503 C.ar    1  UNL1       -0.0029
     29 C          64.7751   87.7008   14.8287 C.3     1  UNL1        0.1394
     30 C          63.8250   86.8859   15.6552 C.ar    1  UNL1        0.0319
     31 C          63.1554   87.4978   16.8500 C.ar    1  UNL1        0.1379
     32 F          63.4360   88.9246   17.2182 F       1  UNL1       -0.2044
     33 C          62.2052   86.6829   17.6764 C.ar    1  UNL1        0.0294
     34 C          61.9246   85.2562   17.3082 C.ar    1  UNL1        0.0022
     35 C          62.5941   84.6443   16.1136 C.ar    1  UNL1        0.0037
     36 C          63.5443   85.4592   15.2870 C.ar    1  UNL1        0.0714
     37 C          64.2138   84.8473   14.0923 C.3     1  UNL1        0.4184
     38 F          64.8833   84.2354   12.8977 F       1  UNL1       -0.1659
     39 F          62.9270   84.9343   13.3266 F       1  UNL1       -0.1659
     40 F          65.5007   84.7603   14.8581 F       1  UNL1       -0.1659
@<TRIPOS>BOND
     1    20    19    1
     2    20    18    1
     3    18     1    1
     4     1     2   ar
     5     2     3    2
     6     2     4   ar
     7     4     9    1
     8     9    10   ar
     9    10    11   ar
    10    11    12   ar
    11    12    15    1
    12    15    16    1
    13    12    13   ar
    14    13    14   ar
    15     4     5   ar
    16     5     6   ar
    17     6    29    1
    18    29    30    1
    19    30    31   ar
    20    31    32    1
    21    31    33   ar
    22    33    34   ar
    23    34    35   ar
    24    35    36   ar
    25    36    37    1
    26    37    38    1
    27    37    39    1
    28    37    40    1
    29     6     7   ar
    30     7     8    2
    31    20    23    1
    32    23    24   ar
    33    24    25   ar
    34    25    26   ar
    35    26    27   ar
    36    27    28   ar
    37     7     1   ar
    38    28    23   ar
    39    14     9   ar
    40    36    30   ar
    41    19    21    1
    42    19    22    1
    43    16    17    1
@<TRIPOS>MOLECULE
*****
 40 43 0 0 0
SMALL
GASTEIGER

@<TRIPOS>ATOM
      1 N          61.8092   87.0316   11.7793 N.ar    1  UNL1       -0.2470
      2 C          62.2930   88.2218   12.5534 C.ar    1  UNL1        0.2657
      3 O          61.6101   89.5478   12.3948 O.2     1  UNL1       -0.2668
      4 C          63.4598   88.0859   13.4863 C.ar    1  UNL1        0.0736
      5 C          64.1427   86.7599   13.6449 C.ar    1  UNL1        0.0847
      6 N          63.6589   85.5697   12.8708 N.ar    1  UNL1       -0.2755
      7 C          62.4922   85.7055   11.9380 C.ar    1  UNL1        0.3341
      8 O          62.0084   84.5153   11.1638 O.2     1  UNL1       -0.2462
      9 C          63.9436   89.2761   14.2605 C.ar    1  UNL1        0.0060
     10 C          64.9758   90.1881   13.6665 C.ar    1  UNL1       -0.0000
     11 C          65.4597   91.3783   14.4406 C.ar    1  UNL1       -0.0019
     12 C          64.9113   91.6565   15.8088 C.ar    1  UNL1        0.0070
     13 C          63.8791   90.7446   16.4028 C.ar    1  UNL1       -0.0019
     14 C          63.3952   89.5544   15.6286 C.ar    1  UNL1       -0.0000
     15 C          65.3951   92.8467   16.5829 C.3     1  UNL1        0.1636
     16 O          66.8061   93.3275   16.4152 O.3     1  UNL1       -0.3772
     17 H          67.4189   92.6550   16.7516 H       1  UNL1        0.2109
     18 C          60.6424   87.1674   10.8464 C.3     1  UNL1        0.1334
     19 N          60.7143   88.9619    8.9690 N.3     1  UNL1       -0.3172
     20 C          60.8693   87.5367    9.4104 C.3     1  UNL1        0.0968
     21 H          60.4538   89.5390    9.7687 H       1  UNL1        0.1192
     22 H          59.9868   89.0199    8.2565 H       1  UNL1        0.1192
     23 C          61.2513   86.4808    8.4157 C.ar    1  UNL1       -0.0063
     24 C          62.6603   85.9686    8.3695 C.ar    1  UNL1       -0.0029
     25 C          63.0422   84.9128    7.3748 C.ar    1  UNL1       -0.0003
     26 C          62.0150   84.3691    6.4265 C.ar    1  UNL1       -0.0000
     27 C          60.6059   84.8813    6.4727 C.ar    1  UNL1       -0.0003
     28 C          60.2241   85.9372    7.4674 C.ar    1  UNL1       -0.0029
     29 C          64.3419   84.2436   13.0295 C.3     1  UNL1        0.1394
     30 C          63.5269   82.9920   13.1677 C.ar    1  UNL1        0.0319
     31 C          63.5797   81.9407   12.0990 C.ar    1  UNL1        0.1379
     32 F          64.4475   82.1411   10.8921 F       1  UNL1       -0.2044
     33 C          62.7646   80.6891   12.2373 C.ar    1  UNL1        0.0294
     34 C          61.8968   80.4887   13.4442 C.ar    1  UNL1        0.0022
     35 C          61.8440   81.5399   14.5129 C.ar    1  UNL1        0.0037
     36 C          62.6591   82.7916   14.3747 C.ar    1  UNL1        0.0714
     37 C          62.6062   83.8428   15.4434 C.3     1  UNL1        0.4184
     38 F          62.5534   84.8940   16.5120 F       1  UNL1       -0.1659
     39 F          63.9099   83.3472   15.9953 F       1  UNL1       -0.1659
     40 F          61.3026   84.3385   14.8914 F       1  UNL1       -0.1659
@<TRIPOS>BOND
     1    20    19    1
     2    20    18    1
     3    18     1    1
     4     1     2   ar
     5     2     3    2
     6     2     4   ar
     7     4     9    1
     8     9    10   ar
     9    10    11   ar
    10    11    12   ar
    11    12    15    1
    12    15    16    1
    13    12    13   ar
    14    13    14   ar
    15     4     5   ar
    16     5     6   ar
    17     6    29    1
    18    29    30    1
    19    30    31   ar
    20    31    32    1
    21    31    33   ar
    22    33    34   ar
    23    34    35   ar
    24    35    36   ar
    25    36    37    1
    26    37    38    1
    27    37    39    1
    28    37    40    1
    29     6     7   ar
    30     7     8    2
    31    20    23    1
    32    23    24   ar
    33    24    25   ar
    34    25    26   ar
    35    26    27   ar
    36    27    28   ar
    37     7     1   ar
    38    28    23   ar
    39    14     9   ar
    40    36    30   ar
    41    19    21    1
    42    19    22    1
    43    16    17    1
@<TRIPOS>MOLECULE
*****
 40 43 0 0 0
SMALL
GASTEIGER

@<TRIPOS>ATOM
      1 N          63.5107   86.3413   13.2941 N.ar    1  UNL1       -0.2470
      2 C          63.0920   85.7855   11.9653 C.ar    1  UNL1        0.2657
      3 O          63.1742   84.3097   11.7100 O.2     1  UNL1       -0.2668
      4 C          62.5911   86.7056   10.8918 C.ar    1  UNL1        0.0736
      5 C          62.5089   88.1814   11.1470 C.ar    1  UNL1        0.0847
      6 N          62.9276   88.7372   12.4758 N.ar    1  UNL1       -0.2755
      7 C          63.4286   87.8171   13.5494 C.ar    1  UNL1        0.3341
      8 O          63.8473   88.3729   14.8782 O.2     1  UNL1       -0.2462
      9 C          62.1723   86.1498    9.5629 C.ar    1  UNL1        0.0060
     10 C          60.7717   86.3610    9.0694 C.ar    1  UNL1       -0.0000
     11 C          60.3529   85.8053    7.7406 C.ar    1  UNL1       -0.0019
     12 C          61.3348   85.0384    6.9052 C.ar    1  UNL1        0.0070
     13 C          62.7355   84.8272    7.3987 C.ar    1  UNL1       -0.0019
     14 C          63.1542   85.3830    8.7276 C.ar    1  UNL1       -0.0000
     15 C          60.9160   84.4827    5.5764 C.3     1  UNL1        0.1636
     16 O          61.9539   84.0779    4.5719 O.3     1  UNL1       -0.3772
     17 H          62.4389   84.8633    4.2738 H       1  UNL1        0.2109
     18 C          64.0117   85.4212   14.3677 C.3     1  UNL1        0.1334
     19 N          62.2932   84.9812   16.2659 N.3     1  UNL1       -0.3172
     20 C          63.0594   84.4992   15.0698 C.3     1  UNL1        0.0968
     21 H          62.5409   85.9514   16.4600 H       1  UNL1        0.1192
     22 H          62.5248   84.4030   17.0736 H       1  UNL1        0.1192
     23 C          62.8733   83.0951   14.5758 C.ar    1  UNL1       -0.0063
     24 C          61.5081   82.4738   14.5788 C.ar    1  UNL1       -0.0029
     25 C          61.3220   81.0697   14.0848 C.ar    1  UNL1       -0.0003
     26 C          62.5012   80.2871   13.5878 C.ar    1  UNL1       -0.0000
     27 C          63.8664   80.9084   13.5848 C.ar    1  UNL1       -0.0003
     28 C          64.0524   82.3124   14.0788 C.ar    1  UNL1       -0.0029
     29 C          62.8455   90.2130   12.7311 C.3     1  UNL1        0.1394
     30 C          63.9596   91.1141   12.2875 C.ar    1  UNL1        0.0319
     31 C          64.0732   91.5125   10.8458 C.ar    1  UNL1        0.1379
     32 F          63.0726   91.0098    9.8477 F       1  UNL1       -0.2044
     33 C          65.1873   92.4135   10.4022 C.ar    1  UNL1        0.0294
     34 C          66.1879   92.9162   11.4003 C.ar    1  UNL1        0.0022
     35 C          66.0743   92.5179   12.8420 C.ar    1  UNL1        0.0037
     36 C          64.9602   91.6168   13.2856 C.ar    1  UNL1        0.0714
     37 C          64.8466   91.2184   14.7272 C.3     1  UNL1        0.4184
     38 F          64.7331   90.8201   16.1689 F       1  UNL1       -0.1659
     39 F          66.1553   90.4921   14.6296 F       1  UNL1       -0.1659
     40 F          63.5379   91.9448   14.8249 F       1  UNL1       -0.1659
@<TRIPOS>BOND
     1    20    19    1
     2    20    18    1
     3    18     1    1
     4     1     2   ar
     5     2     3    2
     6     2     4   ar
     7     4     9    1
     8     9    10   ar
     9    10    11   ar
    10    11    12   ar
    11    12    15    1
    12    15    16    1
    13    12    13   ar
    14    13    14   ar
    15     4     5   ar
    16     5     6   ar
    17     6    29    1
    18    29    30    1
    19    30    31   ar
    20    31    32    1
    21    31    33   ar
    22    33    34   ar
    23    34    35   ar
    24    35    36   ar
    25    36    37    1
    26    37    38    1
    27    37    39    1
    28    37    40    1
    29     6     7   ar
    30     7     8    2
    31    20    23    1
    32    23    24   ar
    33    24    25   ar
    34    25    26   ar
    35    26    27   ar
    36    27    28   ar
    37     7     1   ar
    38    28    23   ar
    39    14     9   ar
    40    36    30   ar
    41    19    21    1
    42    19    22    1
    43    16    17    1
@<TRIPOS>MOLECULE
*****
 40 43 0 0 0
SMALL
GASTEIGER

@<TRIPOS>ATOM
      1 N          64.1827   90.3941   13.1257 N.ar    1  UNL1       -0.2470
      2 C          63.2570   90.0681   11.9914 C.ar    1  UNL1        0.2657
      3 O          62.8379   91.1429   11.0327 O.2     1  UNL1       -0.2668
      4 C          62.7504   88.6672   11.8158 C.ar    1  UNL1        0.0736
      5 C          63.1694   87.5924   12.7746 C.ar    1  UNL1        0.0847
      6 N          64.0951   87.9184   13.9089 N.ar    1  UNL1       -0.2755
      7 C          64.6018   89.3193   14.0844 C.ar    1  UNL1        0.3341
      8 O          65.5275   89.6454   15.2188 O.2     1  UNL1       -0.2462
      9 C          61.8246   88.3411   10.6815 C.ar    1  UNL1        0.0060
     10 C          61.0828   89.4396    9.9793 C.ar    1  UNL1       -0.0000
     11 C          60.1571   89.1136    8.8450 C.ar    1  UNL1       -0.0019
     12 C          59.9731   87.6890    8.4128 C.ar    1  UNL1        0.0070
     13 C          60.7149   86.5905    9.1150 C.ar    1  UNL1       -0.0019
     14 C          61.6406   86.9166   10.2493 C.ar    1  UNL1       -0.0000
     15 C          59.0474   87.3629    7.2785 C.3     1  UNL1        0.1636
     16 O          58.1080   86.1987    7.3880 O.3     1  UNL1       -0.3772
     17 H          58.6177   85.3742    7.4236 H       1  UNL1        0.2109
     18 C          64.6894   91.7950   13.3014 C.3     1  UNL1        0.1334
     19 N          67.1903   91.7331   14.0026 N.3     1  UNL1       -0.3172
     20 C          66.1269   92.1140   13.0156 C.3     1  UNL1        0.0968
     21 H          66.7607   91.2696   14.8032 H       1  UNL1        0.1192
     22 H          67.6786   92.5717   14.3168 H       1  UNL1        0.1192
     23 C          66.5011   92.8139   11.7427 C.ar    1  UNL1       -0.0063
     24 C          67.4857   92.1845   10.8022 C.ar    1  UNL1       -0.0029
     25 C          67.8599   92.8844    9.5294 C.ar    1  UNL1       -0.0003
     26 C          67.2495   94.2137    9.1971 C.ar    1  UNL1       -0.0000
     27 C          66.2650   94.8431   10.1375 C.ar    1  UNL1       -0.0003
     28 C          65.8908   94.1432   11.4103 C.ar    1  UNL1       -0.0029
     29 C          64.5142   86.8436   14.8676 C.3     1  UNL1        0.1394
     30 C          63.8296   85.5092   14.8443 C.ar    1  UNL1        0.0319
     31 C          64.0695   84.5629   13.7054 C.ar    1  UNL1        0.1379
     32 F          64.9941   84.9511   12.5898 F       1  UNL1       -0.2044
     33 C          63.3849   83.2285   13.6821 C.ar    1  UNL1        0.0294
     34 C          62.4603   82.8403   14.7976 C.ar    1  UNL1        0.0022
     35 C          62.2204   83.7865   15.9365 C.ar    1  UNL1        0.0037
     36 C          62.9050   85.1210   15.9598 C.ar    1  UNL1        0.0714
     37 C          62.6650   86.0672   17.0987 C.3     1  UNL1        0.4184
     38 F          62.4251   87.0135   18.2375 F       1  UNL1       -0.1659
     39 F          64.1026   85.9400   17.5073 F       1  UNL1       -0.1659
     40 F          61.2274   86.1945   16.6900 F       1  UNL1       -0.1659
@<TRIPOS>BOND
     1    20    19    1
     2    20    18    1
     3    18     1    1
     4     1     2   ar
     5     2     3    2
     6     2     4   ar
     7     4     9    1
     8     9    10   ar
     9    10    11   ar
    10    11    12   ar
    11    12    15    1
    12    15    16    1
    13    12    13   ar
    14    13    14   ar
    15     4     5   ar
    16     5     6   ar
    17     6    29    1
    18    29    30    1
    19    30    31   ar
    20    31    32    1
    21    31    33   ar
    22    33    34   ar
    23    34    35   ar
    24    35    36   ar
    25    36    37    1
    26    37    38    1
    27    37    39    1
    28    37    40    1
    29     6     7   ar
    30     7     8    2
    31    20    23    1
    32    23    24   ar
    33    24    25   ar
    34    25    26   ar
    35    26    27   ar
    36    27    28   ar
    37     7     1   ar
    38    28    23   ar
    39    14     9   ar
    40    36    30   ar
    41    19    21    1
    42    19    22    1
    43    16    17    1
@<TRIPOS>MOLECULE
*****
 40 43 0 0 0
SMALL
GASTEIGER

@<TRIPOS>ATOM
      1 N          63.6591   85.9384   13.5534 N.ar    1  UNL1       -0.2470
      2 C          63.2108   85.4952   12.1923 C.ar    1  UNL1        0.2657
      3 O          63.2708   84.0438   11.8186 O.2     1  UNL1       -0.2668
      4 C          62.7024   86.5035   11.2050 C.ar    1  UNL1        0.0736
      5 C          62.6423   87.9549   11.5787 C.ar    1  UNL1        0.0847
      6 N          63.0907   88.3981   12.9398 N.ar    1  UNL1       -0.2755
      7 C          63.5991   87.3898   13.9271 C.ar    1  UNL1        0.3341
      8 O          64.0475   87.8330   15.2882 O.2     1  UNL1       -0.2462
      9 C          62.2540   86.0603    9.8438 C.ar    1  UNL1        0.0060
     10 C          63.2117   85.3514    8.9326 C.ar    1  UNL1       -0.0000
     11 C          62.7634   84.9083    7.5716 C.ar    1  UNL1       -0.0019
     12 C          61.3573   85.1740    7.1216 C.ar    1  UNL1        0.0070
     13 C          60.3996   85.8829    8.0328 C.ar    1  UNL1       -0.0019
     14 C          60.8480   86.3261    9.3939 C.ar    1  UNL1       -0.0000
     15 C          60.9089   84.7309    5.7605 C.3     1  UNL1        0.1636
     16 O          61.7866   83.8364    4.9361 O.3     1  UNL1       -0.3772
     17 H          62.5962   84.3123    4.6934 H       1  UNL1        0.2109
     18 C          64.1676   84.9301   14.5408 C.3     1  UNL1        0.1334
     19 N          62.5818   84.4029   16.5301 N.3     1  UNL1       -0.3172
     20 C          63.2088   84.0032   15.2273 C.3     1  UNL1        0.0968
     21 H          62.9175   85.3277   16.7994 H       1  UNL1        0.1192
     22 H          62.8343   83.7265   17.2506 H       1  UNL1        0.1192
     23 C          62.8768   82.6764   14.6111 C.ar    1  UNL1       -0.0063
     24 C          63.9700   81.8137   14.0540 C.ar    1  UNL1       -0.0029
     25 C          63.6380   80.4870   13.4378 C.ar    1  UNL1       -0.0003
     26 C          62.2128   80.0231   13.3788 C.ar    1  UNL1       -0.0000
     27 C          61.1195   80.8859   13.9359 C.ar    1  UNL1       -0.0003
     28 C          61.4515   82.2125   14.5521 C.ar    1  UNL1       -0.0029
     29 C          63.0306   89.8496   13.3135 C.3     1  UNL1        0.1394
     30 C          63.9637   90.8298   12.6666 C.ar    1  UNL1        0.0319
     31 C          65.1654   91.3271   13.4143 C.ar    1  UNL1        0.1379
     32 F          65.4339   90.8440   14.8087 F       1  UNL1       -0.2044
     33 C          66.0984   92.3073   12.7674 C.ar    1  UNL1        0.0294
     34 C          65.8299   92.7904   11.3729 C.ar    1  UNL1        0.0022
     35 C          64.6283   92.2932   10.6253 C.ar    1  UNL1        0.0037
     36 C          63.6952   91.3129   11.2722 C.ar    1  UNL1        0.0714
     37 C          62.4936   90.8157   10.5246 C.3     1  UNL1        0.4184
     38 F          61.2920   90.3185    9.7769 F       1  UNL1       -0.1659
     39 F          63.3914   90.1474    9.5260 F       1  UNL1       -0.1659
     40 F          61.5958   91.4841   11.5231 F       1  UNL1       -0.1659
@<TRIPOS>BOND
     1    20    19    1
     2    20    18    1
     3    18     1    1
     4     1     2   ar
     5     2     3    2
     6     2     4   ar
     7     4     9    1
     8     9    10   ar
     9    10    11   ar
    10    11    12   ar
    11    12    15    1
    12    15    16    1
    13    12    13   ar
    14    13    14   ar
    15     4     5   ar
    16     5     6   ar
    17     6    29    1
    18    29    30    1
    19    30    31   ar
    20    31    32    1
    21    31    33   ar
    22    33    34   ar
    23    34    35   ar
    24    35    36   ar
    25    36    37    1
    26    37    38    1
    27    37    39    1
    28    37    40    1
    29     6     7   ar
    30     7     8    2
    31    20    23    1
    32    23    24   ar
    33    24    25   ar
    34    25    26   ar
    35    26    27   ar
    36    27    28   ar
    37     7     1   ar
    38    28    23   ar
    39    14     9   ar
    40    36    30   ar
    41    19    21    1
    42    19    22    1
    43    16    17    1
@<TRIPOS>MOLECULE
*****
 40 43 0 0 0
SMALL
GASTEIGER

@<TRIPOS>ATOM
      1 N          63.5277   89.1955   13.4015 N.ar    1  UNL1       -0.2470
      2 C          62.6160   89.2861   12.2139 C.ar    1  UNL1        0.2657
      3 O          62.0470   90.6123   11.8045 O.2     1  UNL1       -0.2668
      4 C          62.2733   88.0505   11.4356 C.ar    1  UNL1        0.0736
      5 C          62.8422   86.7244   11.8449 C.ar    1  UNL1        0.0847
      6 N          63.7539   86.6338   13.0326 N.ar    1  UNL1       -0.2755
      7 C          64.0966   87.8694   13.8109 C.ar    1  UNL1        0.3341
      8 O          65.0084   87.7788   14.9986 O.2     1  UNL1       -0.2462
      9 C          61.3615   88.1411   10.2478 C.ar    1  UNL1        0.0060
     10 C          60.7215   86.9011    9.6975 C.ar    1  UNL1       -0.0000
     11 C          59.8098   86.9916    8.5098 C.ar    1  UNL1       -0.0019
     12 C          59.5381   88.3221    7.8725 C.ar    1  UNL1        0.0070
     13 C          60.1781   89.5620    8.4229 C.ar    1  UNL1       -0.0019
     14 C          61.0899   89.4715    9.6106 C.ar    1  UNL1       -0.0000
     15 C          58.6264   88.4126    6.6848 C.3     1  UNL1        0.1636
     16 O          58.5362   89.6902    5.9041 O.3     1  UNL1       -0.3772
     17 H          58.1467   90.3825    6.4608 H       1  UNL1        0.2109
     18 C          63.8704   90.4312   14.1799 C.3     1  UNL1        0.1334
     19 N          66.3577   90.6720   14.8910 N.3     1  UNL1       -0.3172
     20 C          65.2137   91.0766   14.0092 C.3     1  UNL1        0.0968
     21 H          66.0460   89.9527   15.5437 H       1  UNL1        0.1192
     22 H          66.6887   91.4838   15.4124 H       1  UNL1        0.1192
     23 C          65.4129   92.1266   12.9567 C.ar    1  UNL1       -0.0063
     24 C          64.8849   91.9081   11.5698 C.ar    1  UNL1       -0.0029
     25 C          65.0842   92.9581   10.5174 C.ar    1  UNL1       -0.0003
     26 C          65.8115   94.2267   10.8518 C.ar    1  UNL1       -0.0000
     27 C          66.3395   94.4452   12.2386 C.ar    1  UNL1       -0.0003
     28 C          66.1402   93.3952   13.2911 C.ar    1  UNL1       -0.0029
     29 C          64.3229   85.3076   13.4419 C.3     1  UNL1        0.1394
     30 C          63.4131   84.1336   13.6514 C.ar    1  UNL1        0.0319
     31 C          62.6779   83.9768   14.9495 C.ar    1  UNL1        0.1379
     32 F          62.8525   84.9940   16.0380 F       1  UNL1       -0.2044
     33 C          61.7680   82.8028   15.1590 C.ar    1  UNL1        0.0294
     34 C          61.5934   81.7856   14.0705 C.ar    1  UNL1        0.0022
     35 C          62.3285   81.9424   12.7725 C.ar    1  UNL1        0.0037
     36 C          63.2384   83.1165   12.5629 C.ar    1  UNL1        0.0714
     37 C          63.9736   83.2733   11.2649 C.3     1  UNL1        0.4184
     38 F          64.7087   83.4301    9.9669 F       1  UNL1       -0.1659
     39 F          62.8136   84.0387   10.7004 F       1  UNL1       -0.1659
     40 F          65.1335   82.5078   11.8294 F       1  UNL1       -0.1659
@<TRIPOS>BOND
     1    20    19    1
     2    20    18    1
     3    18     1    1
     4     1     2   ar
     5     2     3    2
     6     2     4   ar
     7     4     9    1
     8     9    10   ar
     9    10    11   ar
    10    11    12   ar
    11    12    15    1
    12    15    16    1
    13    12    13   ar
    14    13    14   ar
    15     4     5   ar
    16     5     6   ar
    17     6    29    1
    18    29    30    1
    19    30    31   ar
    20    31    32    1
    21    31    33   ar
    22    33    34   ar
    23    34    35   ar
    24    35    36   ar
    25    36    37    1
    26    37    38    1
    27    37    39    1
    28    37    40    1
    29     6     7   ar
    30     7     8    2
    31    20    23    1
    32    23    24   ar
    33    24    25   ar
    34    25    26   ar
    35    26    27   ar
    36    27    28   ar
    37     7     1   ar
    38    28    23   ar
    39    14     9   ar
    40    36    30   ar
    41    19    21    1
    42    19    22    1
    43    16    17    1
