@<TRIPOS>MOLECULE
*****
 28 31 0 0 0
SMALL
GASTEIGER

@<TRIPOS>ATOM
      1 C          61.4193   88.2076   10.7773 C.2     1  UNL1       -0.0246
      2 C          62.1984   86.9754   11.1303 C.2     1  UNL1       -0.0421
      3 C          61.9598   85.9534   10.0585 C.3     1  UNL1        0.0480
      4 C          61.0333   86.5540    9.0433 C.ar    1  UNL1       -0.0184
      5 C          60.4506   86.0123    7.7717 C.ar    1  UNL1       -0.0040
      6 C          59.5339   86.8638    6.9443 C.ar    1  UNL1       -0.0003
      7 C          59.1998   88.2570    7.3886 C.ar    1  UNL1       -0.0000
      8 C          59.7825   88.7987    8.6602 C.ar    1  UNL1       -0.0006
      9 C          60.6992   87.9472    9.4875 C.ar    1  UNL1       -0.0079
     10 C          60.0992   89.8808   12.2633 C.3     1  UNL1        0.0111
     11 C          61.3691   89.4774   11.5743 C.3     1  UNL1        0.0634
     12 C          62.5888   90.3438   11.6824 C.ar    1  UNL1        0.0818
     13 C          63.0977   91.0763   10.4765 C.ar    1  UNL1        0.1139
     14 N          64.3174   91.9427   10.5846 N.ar    1  UNL1       -0.2394
     15 C          65.0281   92.0767   11.8987 C.ar    1  UNL1        0.1195
     16 C          64.5192   91.3442   13.1047 C.ar    1  UNL1        0.1191
     17 N          63.2996   90.4778   12.9966 N.ar    1  UNL1       -0.2446
     18 C          63.0641   86.7965   12.3421 C.3     1  UNL1        0.0394
     19 C          63.0363   85.5019   13.0993 C.3     1  UNL1        0.0769
     20 N          64.1341   85.1760   14.0681 N.3     1  UNL1       -0.2648
     21 C          64.6582   86.2353   14.9919 C.3     1  UNL1        0.0900
     22 C          64.7077   83.7908   14.1133 C.3     1  UNL1        0.1371
     23 C          63.8793   82.6211   13.6709 C.ar    1  UNL1        0.1368
     24 N          63.0533   81.7393   14.5598 N.ar    1  UNL1       -0.2279
     25 C          62.3949   80.7011   13.7003 C.ar    1  UNL1        0.1189
     26 C          62.8141   80.9413   12.2802 C.ar    1  UNL1        0.0978
     27 N          63.7315   82.1279   12.2621 N.ar    1  UNL1       -0.3106
     28 C          64.3861   82.7177   11.0482 C.3     1  UNL1        0.1317
@<TRIPOS>BOND
     1    11    10    1
     2    11     1    1
     3     1     2    2
     4     2    18    1
     5    18    19    1
     6    19    20    1
     7    20    21    1
     8    20    22    1
     9    22    23    1
    10    23    24   ar
    11    24    25   ar
    12    25    26   ar
    13    26    27   ar
    14    27    28    1
    15     2     3    1
    16     3     4    1
    17     4     5   ar
    18     5     6   ar
    19     6     7   ar
    20     7     8   ar
    21     8     9   ar
    22    11    12    1
    23    12    13   ar
    24    13    14   ar
    25    14    15   ar
    26    15    16   ar
    27    16    17   ar
    28     9     1    1
    29    17    12   ar
    30    27    23   ar
    31     9     4   ar
@<TRIPOS>MOLECULE
*****
 28 31 0 0 0
SMALL
GASTEIGER

@<TRIPOS>ATOM
      1 C          62.9684   85.3253   12.0455 C.2     1  UNL1       -0.0246
      2 C          63.5384   86.0874   13.2050 C.2     1  UNL1       -0.0421
      3 C          63.8680   85.1042   14.2888 C.3     1  UNL1        0.0480
      4 C          63.5019   83.7345   13.7991 C.ar    1  UNL1       -0.0184
      5 C          63.6029   82.3805   14.4366 C.ar    1  UNL1       -0.0040
      6 C          63.1479   81.1631   13.6877 C.ar    1  UNL1       -0.0003
      7 C          62.5919   81.2998   12.3012 C.ar    1  UNL1       -0.0000
      8 C          62.4909   82.6538   11.6638 C.ar    1  UNL1       -0.0006
      9 C          62.9459   83.8711   12.4127 C.ar    1  UNL1       -0.0079
     10 C          62.7704   85.1941    9.4582 C.3     1  UNL1        0.0111
     11 C          62.5028   85.9140   10.7468 C.3     1  UNL1        0.0634
     12 C          61.7696   87.2225   10.7365 C.ar    1  UNL1        0.0818
     13 C          62.2765   88.3598    9.9001 C.ar    1  UNL1        0.1139
     14 N          61.5433   89.6683    9.8898 N.ar    1  UNL1       -0.2394
     15 C          60.3031   89.8396   10.7160 C.ar    1  UNL1        0.1195
     16 C          59.7961   88.7023   11.5525 C.ar    1  UNL1        0.1191
     17 N          60.5294   87.3938   11.5627 N.ar    1  UNL1       -0.2446
     18 C          63.7428   87.5720   13.2693 C.3     1  UNL1        0.0394
     19 C          64.2284   88.2080   14.5381 C.3     1  UNL1        0.0769
     20 N          63.6730   89.5314   14.9740 N.3     1  UNL1       -0.2648
     21 C          63.2268   89.7269   16.3927 C.3     1  UNL1        0.0900
     22 C          63.5638   90.6593   13.9912 C.3     1  UNL1        0.1371
     23 C          64.6756   91.6589   13.8701 C.ar    1  UNL1        0.1368
     24 N          65.4796   92.2250   15.0029 N.ar    1  UNL1       -0.2279
     25 C          66.4795   93.1839   14.4279 C.ar    1  UNL1        0.1189
     26 C          66.2935   93.2105   12.9397 C.ar    1  UNL1        0.0978
     27 N          65.1787   92.2680   12.5950 N.ar    1  UNL1       -0.3106
     28 C          64.6582   91.9844   11.2171 C.3     1  UNL1        0.1317
@<TRIPOS>BOND
     1    11    10    1
     2    11     1    1
     3     1     2    2
     4     2    18    1
     5    18    19    1
     6    19    20    1
     7    20    21    1
     8    20    22    1
     9    22    23    1
    10    23    24   ar
    11    24    25   ar
    12    25    26   ar
    13    26    27   ar
    14    27    28    1
    15     2     3    1
    16     3     4    1
    17     4     5   ar
    18     5     6   ar
    19     6     7   ar
    20     7     8   ar
    21     8     9   ar
    22    11    12    1
    23    12    13   ar
    24    13    14   ar
    25    14    15   ar
    26    15    16   ar
    27    16    17   ar
    28     9     1    1
    29    17    12   ar
    30    27    23   ar
    31     9     4   ar
@<TRIPOS>MOLECULE
*****
 28 31 0 0 0
SMALL
GASTEIGER

@<TRIPOS>ATOM
      1 C          63.8382   90.6774   13.6966 C.2     1  UNL1       -0.0246
      2 C          62.8067   90.3820   12.6484 C.2     1  UNL1       -0.0421
      3 C          63.2534   91.0190   11.3660 C.3     1  UNL1        0.0480
      4 C          64.5610   91.7081   11.6216 C.ar    1  UNL1       -0.0184
      5 C          65.4692   92.5005   10.7288 C.ar    1  UNL1       -0.0040
      6 C          66.7389   93.0819   11.2764 C.ar    1  UNL1       -0.0003
      7 C          67.1003   92.8708   12.7169 C.ar    1  UNL1       -0.0000
      8 C          66.1921   92.0783   13.6096 C.ar    1  UNL1       -0.0006
      9 C          64.9224   91.4970   13.0620 C.ar    1  UNL1       -0.0079
     10 C          63.8051   91.2482   16.2311 C.3     1  UNL1        0.0111
     11 C          63.7934   90.2315   15.1281 C.3     1  UNL1        0.0634
     12 C          63.7369   88.7692   15.4568 C.ar    1  UNL1        0.0818
     13 C          63.0409   88.3067   16.7025 C.ar    1  UNL1        0.1139
     14 N          62.9845   86.8442   17.0311 N.ar    1  UNL1       -0.2394
     15 C          63.6240   85.8442   16.1141 C.ar    1  UNL1        0.1195
     16 C          64.3200   86.3066   14.8684 C.ar    1  UNL1        0.1191
     17 N          64.3765   87.7690   14.5398 N.ar    1  UNL1       -0.2446
     18 C          61.5492   89.5888   12.8477 C.3     1  UNL1        0.0394
     19 C          60.4326   89.6903   11.8513 C.3     1  UNL1        0.0769
     20 N          60.4911   88.9021   10.5764 N.3     1  UNL1       -0.2648
     21 C          60.5826   89.6131    9.2587 C.3     1  UNL1        0.0900
     22 C          60.4581   87.4031   10.6191 C.3     1  UNL1        0.1371
     23 C          61.0840   86.6073    9.5124 C.ar    1  UNL1        0.1368
     24 N          62.4692   86.0317    9.5146 N.ar    1  UNL1       -0.2279
     25 C          62.6759   85.3160    8.2127 C.ar    1  UNL1        0.1189
     26 C          61.4184   85.4492    7.4058 C.ar    1  UNL1        0.0978
     27 N          60.4346   86.2473    8.2091 N.ar    1  UNL1       -0.3106
     28 C          59.0453   86.6199    7.7837 C.3     1  UNL1        0.1317
@<TRIPOS>BOND
     1    11    10    1
     2    11     1    1
     3     1     2    2
     4     2    18    1
     5    18    19    1
     6    19    20    1
     7    20    21    1
     8    20    22    1
     9    22    23    1
    10    23    24   ar
    11    24    25   ar
    12    25    26   ar
    13    26    27   ar
    14    27    28    1
    15     2     3    1
    16     3     4    1
    17     4     5   ar
    18     5     6   ar
    19     6     7   ar
    20     7     8   ar
    21     8     9   ar
    22    11    12    1
    23    12    13   ar
    24    13    14   ar
    25    14    15   ar
    26    15    16   ar
    27    16    17   ar
    28     9     1    1
    29    17    12   ar
    30    27    23   ar
    31     9     4   ar
@<TRIPOS>MOLECULE
*****
 28 31 0 0 0
SMALL
GASTEIGER

@<TRIPOS>ATOM
      1 C          63.3468   87.5291   12.7941 C.2     1  UNL1       -0.0246
      2 C          63.5114   89.0178   12.7127 C.2     1  UNL1       -0.0421
      3 C          62.8188   89.4935   11.4701 C.3     1  UNL1        0.0480
      4 C          62.2262   88.2987   10.7835 C.ar    1  UNL1       -0.0184
      5 C          61.4316   88.1595    9.5189 C.ar    1  UNL1       -0.0040
      6 C          60.9633   86.8061    9.0726 C.ar    1  UNL1       -0.0003
      7 C          61.2897   85.5921    9.8909 C.ar    1  UNL1       -0.0000
      8 C          62.0843   85.7314   11.1555 C.ar    1  UNL1       -0.0006
      9 C          62.5525   87.0847   11.6018 C.ar    1  UNL1       -0.0079
     10 C          64.7040   87.2247   14.9885 C.3     1  UNL1        0.0111
     11 C          63.8825   86.6408   13.8775 C.3     1  UNL1        0.0634
     12 C          63.5967   85.1686   13.8501 C.ar    1  UNL1        0.0818
     13 C          64.5288   84.2367   13.1340 C.ar    1  UNL1        0.1139
     14 N          64.2430   82.7645   13.1066 N.ar    1  UNL1       -0.2394
     15 C          63.0250   82.2240   13.7954 C.ar    1  UNL1        0.1195
     16 C          62.0928   83.1558   14.5115 C.ar    1  UNL1        0.1191
     17 N          62.3787   84.6280   14.5389 N.ar    1  UNL1       -0.2446
     18 C          64.2406   89.8796   13.7005 C.3     1  UNL1        0.0394
     19 C          64.2852   91.3666   13.5091 C.3     1  UNL1        0.0769
     20 N          65.4147   91.9910   12.7447 N.3     1  UNL1       -0.2648
     21 C          66.7132   92.2882   13.4345 C.3     1  UNL1        0.0900
     22 C          65.2459   92.3181   11.2906 C.3     1  UNL1        0.1371
     23 C          66.3970   92.8792   10.5095 C.ar    1  UNL1        0.1368
     24 N          67.5577   92.0995    9.9667 N.ar    1  UNL1       -0.2279
     25 C          68.4675   93.0570    9.2558 C.ar    1  UNL1        0.1189
     26 C          67.8692   94.4285    9.3593 C.ar    1  UNL1        0.0978
     27 N          66.5895   94.3187   10.1342 N.ar    1  UNL1       -0.3106
     28 C          65.6647   95.4497   10.4740 C.3     1  UNL1        0.1317
@<TRIPOS>BOND
     1    11    10    1
     2    11     1    1
     3     1     2    2
     4     2    18    1
     5    18    19    1
     6    19    20    1
     7    20    21    1
     8    20    22    1
     9    22    23    1
    10    23    24   ar
    11    24    25   ar
    12    25    26   ar
    13    26    27   ar
    14    27    28    1
    15     2     3    1
    16     3     4    1
    17     4     5   ar
    18     5     6   ar
    19     6     7   ar
    20     7     8   ar
    21     8     9   ar
    22    11    12    1
    23    12    13   ar
    24    13    14   ar
    25    14    15   ar
    26    15    16   ar
    27    16    17   ar
    28     9     1    1
    29    17    12   ar
    30    27    23   ar
    31     9     4   ar
@<TRIPOS>MOLECULE
*****
 28 31 0 0 0
SMALL
GASTEIGER

@<TRIPOS>ATOM
      1 C          64.7032   91.6255   12.4410 C.2     1  UNL1       -0.0246
      2 C          63.8880   90.5162   13.0366 C.2     1  UNL1       -0.0421
      3 C          64.2424   90.4095   14.4902 C.3     1  UNL1        0.0480
      4 C          65.2766   91.4530   14.7930 C.ar    1  UNL1       -0.0184
      5 C          65.9958   91.8158   16.0583 C.ar    1  UNL1       -0.0040
      6 C          66.9998   92.9302   16.0570 C.ar    1  UNL1       -0.0003
      7 C          67.2846   93.6818   14.7905 C.ar    1  UNL1       -0.0000
      8 C          66.5654   93.3189   13.5252 C.ar    1  UNL1       -0.0006
      9 C          65.5614   92.2045   13.5264 C.ar    1  UNL1       -0.0079
     10 C          63.5700   91.6040   10.1031 C.3     1  UNL1        0.0111
     11 C          64.6666   92.0768   11.0109 C.3     1  UNL1        0.0634
     12 C          65.7265   93.0007   10.4886 C.ar    1  UNL1        0.0818
     13 C          67.0684   92.4572   10.0963 C.ar    1  UNL1        0.1139
     14 N          68.1283   93.3812    9.5740 N.ar    1  UNL1       -0.2394
     15 C          67.8463   94.8487    9.4439 C.ar    1  UNL1        0.1195
     16 C          66.5044   95.3923    9.8362 C.ar    1  UNL1        0.1191
     17 N          65.4445   94.4682   10.3585 N.ar    1  UNL1       -0.2446
     18 C          62.8930   89.6633   12.3067 C.3     1  UNL1        0.0394
     19 C          63.1148   88.1843   12.1914 C.3     1  UNL1        0.0769
     20 N          62.0863   87.3216   11.5221 N.3     1  UNL1       -0.2648
     21 C          60.7651   87.9060   11.1182 C.3     1  UNL1        0.0900
     22 C          62.3789   85.8746   11.2567 C.3     1  UNL1        0.1371
     23 C          62.9134   85.0038   12.3549 C.ar    1  UNL1        0.1368
     24 N          62.6428   85.1681   13.8212 N.ar    1  UNL1       -0.2279
     25 C          63.3745   84.0816   14.5522 C.ar    1  UNL1        0.1189
     26 C          64.0973   83.2459   13.5377 C.ar    1  UNL1        0.0978
     27 N          63.8123   83.8158   12.1798 N.ar    1  UNL1       -0.3106
     28 C          64.3345   83.2901   10.8756 C.3     1  UNL1        0.1317
@<TRIPOS>BOND
     1    11    10    1
     2    11     1    1
     3     1     2    2
     4     2    18    1
     5    18    19    1
     6    19    20    1
     7    20    21    1
     8    20    22    1
     9    22    23    1
    10    23    24   ar
    11    24    25   ar
    12    25    26   ar
    13    26    27   ar
    14    27    28    1
    15     2     3    1
    16     3     4    1
    17     4     5   ar
    18     5     6   ar
    19     6     7   ar
    20     7     8   ar
    21     8     9   ar
    22    11    12    1
    23    12    13   ar
    24    13    14   ar
    25    14    15   ar
    26    15    16   ar
    27    16    17   ar
    28     9     1    1
    29    17    12   ar
    30    27    23   ar
    31     9     4   ar
@<TRIPOS>MOLECULE
*****
 28 31 0 0 0
SMALL
GASTEIGER

@<TRIPOS>ATOM
      1 C          63.8885   90.3945   14.1918 C.2     1  UNL1       -0.0246
      2 C          62.9341   90.3778   13.0348 C.2     1  UNL1       -0.0421
      3 C          63.5606   91.1416   11.9061 C.3     1  UNL1        0.0480
      4 C          64.9023   91.6304   12.3655 C.ar    1  UNL1       -0.0184
      5 C          65.9656   92.4362   11.6800 C.ar    1  UNL1       -0.0040
      6 C          67.2315   92.7803   12.4073 C.ar    1  UNL1       -0.0003
      7 C          67.4342   92.3186   13.8200 C.ar    1  UNL1       -0.0000
      8 C          66.3709   91.5127   14.5055 C.ar    1  UNL1       -0.0006
      9 C          65.1049   91.1686   13.7782 C.ar    1  UNL1       -0.0079
     10 C          63.3959   90.5996   16.7346 C.3     1  UNL1        0.0111
     11 C          63.6657   89.7502   15.5280 C.3     1  UNL1        0.0634
     12 C          63.7126   88.2567   15.6576 C.ar    1  UNL1        0.0818
     13 C          64.4865   87.4415   14.6643 C.ar    1  UNL1        0.1139
     14 N          64.5334   85.9479   14.7940 N.ar    1  UNL1       -0.2394
     15 C          63.8065   85.2693   15.9170 C.ar    1  UNL1        0.1195
     16 C          63.0326   86.0844   16.9104 C.ar    1  UNL1        0.1191
     17 N          62.9857   87.5780   16.7807 N.ar    1  UNL1       -0.2446
     18 C          61.5892   89.7139   13.0107 C.3     1  UNL1        0.0394
     19 C          60.8696   89.5242   11.7084 C.3     1  UNL1        0.0769
     20 N          61.3422   88.4856   10.7347 N.3     1  UNL1       -0.2648
     21 C          62.3411   88.8492    9.6763 C.3     1  UNL1        0.0900
     22 C          60.8158   87.0836   10.8193 C.3     1  UNL1        0.1371
     23 C          61.7601   85.9404   11.0461 C.ar    1  UNL1        0.1368
     24 N          62.0694   85.3010   12.3673 N.ar    1  UNL1       -0.2279
     25 C          63.0613   84.2013   12.1292 C.ar    1  UNL1        0.1189
     26 C          63.3652   84.1610   10.6608 C.ar    1  UNL1        0.0978
     27 N          62.5610   85.2358    9.9915 N.ar    1  UNL1       -0.3106
     28 C          62.5582   85.5508    8.5249 C.3     1  UNL1        0.1317
@<TRIPOS>BOND
     1    11    10    1
     2    11     1    1
     3     1     2    2
     4     2    18    1
     5    18    19    1
     6    19    20    1
     7    20    21    1
     8    20    22    1
     9    22    23    1
    10    23    24   ar
    11    24    25   ar
    12    25    26   ar
    13    26    27   ar
    14    27    28    1
    15     2     3    1
    16     3     4    1
    17     4     5   ar
    18     5     6   ar
    19     6     7   ar
    20     7     8   ar
    21     8     9   ar
    22    11    12    1
    23    12    13   ar
    24    13    14   ar
    25    14    15   ar
    26    15    16   ar
    27    16    17   ar
    28     9     1    1
    29    17    12   ar
    30    27    23   ar
    31     9     4   ar
@<TRIPOS>MOLECULE
*****
 28 31 0 0 0
SMALL
GASTEIGER

@<TRIPOS>ATOM
      1 C          64.7437   91.5926   12.3348 C.2     1  UNL1       -0.0246
      2 C          63.9981   90.4062   12.8702 C.2     1  UNL1       -0.0421
      3 C          64.3353   90.2647   14.3249 C.3     1  UNL1        0.0480
      4 C          65.2893   91.3636   14.6886 C.ar    1  UNL1       -0.0184
      5 C          65.9607   91.7230   15.9809 C.ar    1  UNL1       -0.0040
      6 C          66.8846   92.9031   16.0432 C.ar    1  UNL1       -0.0003
      7 C          67.1369   93.7238   14.8132 C.ar    1  UNL1       -0.0000
      8 C          66.4655   93.3644   13.5210 C.ar    1  UNL1       -0.0006
      9 C          65.5417   92.1843   13.4587 C.ar    1  UNL1       -0.0079
     10 C          63.5957   91.6629   10.0051 C.3     1  UNL1        0.0111
     11 C          64.6991   92.0984   10.9234 C.3     1  UNL1        0.0634
     12 C          65.7576   93.0397   10.4302 C.ar    1  UNL1        0.0818
     13 C          67.1092   92.5141   10.0469 C.ar    1  UNL1        0.1139
     14 N          68.1678   93.4555    9.5537 N.ar    1  UNL1       -0.2394
     15 C          67.8748   94.9224    9.4438 C.ar    1  UNL1        0.1195
     16 C          66.5232   95.4481    9.8270 C.ar    1  UNL1        0.1191
     17 N          65.4646   94.5068   10.3202 N.ar    1  UNL1       -0.2446
     18 C          63.0771   89.5173   12.0881 C.3     1  UNL1        0.0394
     19 C          61.6238   89.8672   11.9635 C.3     1  UNL1        0.0769
     20 N          60.6025   88.7812   11.7976 N.3     1  UNL1       -0.2648
     21 C          59.1759   89.0268   12.1910 C.3     1  UNL1        0.0900
     22 C          61.0076   87.4497   11.2382 C.3     1  UNL1        0.1371
     23 C          60.5892   87.0600    9.8515 C.ar    1  UNL1        0.1368
     24 N          59.3349   87.4957    9.1538 N.ar    1  UNL1       -0.2279
     25 C          59.3221   86.8712    7.7900 C.ar    1  UNL1        0.1189
     26 C          60.5685   86.0495    7.6449 C.ar    1  UNL1        0.0978
     27 N          61.3516   86.1662    8.9189 N.ar    1  UNL1       -0.3106
     28 C          62.6664   85.5051    9.2093 C.3     1  UNL1        0.1317
@<TRIPOS>BOND
     1    11    10    1
     2    11     1    1
     3     1     2    2
     4     2    18    1
     5    18    19    1
     6    19    20    1
     7    20    21    1
     8    20    22    1
     9    22    23    1
    10    23    24   ar
    11    24    25   ar
    12    25    26   ar
    13    26    27   ar
    14    27    28    1
    15     2     3    1
    16     3     4    1
    17     4     5   ar
    18     5     6   ar
    19     6     7   ar
    20     7     8   ar
    21     8     9   ar
    22    11    12    1
    23    12    13   ar
    24    13    14   ar
    25    14    15   ar
    26    15    16   ar
    27    16    17   ar
    28     9     1    1
    29    17    12   ar
    30    27    23   ar
    31     9     4   ar
@<TRIPOS>MOLECULE
*****
 28 31 0 0 0
SMALL
GASTEIGER

@<TRIPOS>ATOM
      1 C          64.1457   90.6261   12.7014 C.2     1  UNL1       -0.0246
      2 C          64.1022   89.5368   13.7316 C.2     1  UNL1       -0.0421
      3 C          65.0155   89.9258   14.8562 C.3     1  UNL1        0.0480
      4 C          65.6234   91.2555   14.5210 C.ar    1  UNL1       -0.0184
      5 C          66.5969   92.1280   15.2564 C.ar    1  UNL1       -0.0040
      6 C          67.0329   93.4334   14.6600 C.ar    1  UNL1       -0.0003
      7 C          66.4954   93.8663   13.3282 C.ar    1  UNL1       -0.0000
      8 C          65.5218   92.9937   12.5928 C.ar    1  UNL1       -0.0006
      9 C          65.0858   91.6883   13.1892 C.ar    1  UNL1       -0.0079
     10 C          63.7381   91.6463   10.3469 C.3     1  UNL1        0.0111
     11 C          63.3830   90.6493   11.4100 C.3     1  UNL1        0.0634
     12 C          62.2653   89.6755   11.1814 C.ar    1  UNL1        0.0818
     13 C          60.9521   89.8631   11.8817 C.ar    1  UNL1        0.1139
     14 N          59.8344   88.8892   11.6532 N.ar    1  UNL1       -0.2394
     15 C          60.0298   87.7277   10.7243 C.ar    1  UNL1        0.1195
     16 C          61.3429   87.5401   10.0240 C.ar    1  UNL1        0.1191
     17 N          62.4607   88.5139   10.2526 N.ar    1  UNL1       -0.2446
     18 C          63.2884   88.2793   13.6514 C.3     1  UNL1        0.0394
     19 C          63.9700   86.9548   13.4751 C.3     1  UNL1        0.0769
     20 N          64.0678   86.0021   14.6295 N.3     1  UNL1       -0.2648
     21 C          63.6443   86.4391   16.0005 C.3     1  UNL1        0.0900
     22 C          64.5891   84.6124   14.4129 C.3     1  UNL1        0.1371
     23 C          63.6413   83.4999   14.0752 C.ar    1  UNL1        0.1368
     24 N          62.7187   82.8063   15.0332 N.ar    1  UNL1       -0.2279
     25 C          61.9568   81.7635   14.2703 C.ar    1  UNL1        0.1189
     26 C          62.4086   81.8126   12.8408 C.ar    1  UNL1        0.0978
     27 N          63.4496   82.8857   12.7202 N.ar    1  UNL1       -0.3106
     28 C          64.1721   83.2762   11.4650 C.3     1  UNL1        0.1317
@<TRIPOS>BOND
     1    11    10    1
     2    11     1    1
     3     1     2    2
     4     2    18    1
     5    18    19    1
     6    19    20    1
     7    20    21    1
     8    20    22    1
     9    22    23    1
    10    23    24   ar
    11    24    25   ar
    12    25    26   ar
    13    26    27   ar
    14    27    28    1
    15     2     3    1
    16     3     4    1
    17     4     5   ar
    18     5     6   ar
    19     6     7   ar
    20     7     8   ar
    21     8     9   ar
    22    11    12    1
    23    12    13   ar
    24    13    14   ar
    25    14    15   ar
    26    15    16   ar
    27    16    17   ar
    28     9     1    1
    29    17    12   ar
    30    27    23   ar
    31     9     4   ar
@<TRIPOS>MOLECULE
*****
 28 31 0 0 0
SMALL
GASTEIGER

@<TRIPOS>ATOM
      1 C          61.8598   87.6231   10.8891 C.2     1  UNL1       -0.0246
      2 C          62.4194   86.6251   11.8591 C.2     1  UNL1       -0.0421
      3 C          63.3649   87.3468   12.7729 C.3     1  UNL1        0.0480
      4 C          63.3898   88.7908   12.3677 C.ar    1  UNL1       -0.0184
      5 C          64.1393   89.9722   12.9084 C.ar    1  UNL1       -0.0040
      6 C          63.9585   91.3244   12.2849 C.ar    1  UNL1       -0.0003
      7 C          63.0283   91.4952   11.1206 C.ar    1  UNL1       -0.0000
      8 C          62.2788   90.3138   10.5799 C.ar    1  UNL1       -0.0006
      9 C          62.4596   88.9616   11.2034 C.ar    1  UNL1       -0.0079
     10 C          59.5249   87.9898    9.8103 C.3     1  UNL1        0.0111
     11 C          60.8737   87.3335    9.7966 C.3     1  UNL1        0.0634
     12 C          61.2361   86.3876    8.6904 C.ar    1  UNL1        0.0818
     13 C          60.1998   85.9729    7.6884 C.ar    1  UNL1        0.1139
     14 N          60.5623   85.0270    6.5821 N.ar    1  UNL1       -0.2394
     15 C          61.9612   84.4958    6.4778 C.ar    1  UNL1        0.1195
     16 C          62.9977   84.9105    7.4797 C.ar    1  UNL1        0.1191
     17 N          62.6351   85.8564    8.5860 N.ar    1  UNL1       -0.2446
     18 C          62.0910   85.1622   11.9069 C.3     1  UNL1        0.0394
     19 C          63.1562   84.1655   12.2557 C.3     1  UNL1        0.0769
     20 N          62.7982   82.9164   13.0051 N.3     1  UNL1       -0.2648
     21 C          62.2694   81.7234   12.2652 C.3     1  UNL1        0.0900
     22 C          62.9688   82.8603   14.4943 C.3     1  UNL1        0.1371
     23 C          63.0375   84.1301   15.2897 C.ar    1  UNL1        0.1368
     24 N          61.9506   84.6835   16.1629 N.ar    1  UNL1       -0.2279
     25 C          62.4466   85.9649   16.7645 C.ar    1  UNL1        0.1189
     26 C          63.8400   86.2036   16.2631 C.ar    1  UNL1        0.0978
     27 N          64.2052   85.0696   15.3517 N.ar    1  UNL1       -0.3106
     28 C          65.5092   84.9042   14.6291 C.3     1  UNL1        0.1317
@<TRIPOS>BOND
     1    11    10    1
     2    11     1    1
     3     1     2    2
     4     2    18    1
     5    18    19    1
     6    19    20    1
     7    20    21    1
     8    20    22    1
     9    22    23    1
    10    23    24   ar
    11    24    25   ar
    12    25    26   ar
    13    26    27   ar
    14    27    28    1
    15     2     3    1
    16     3     4    1
    17     4     5   ar
    18     5     6   ar
    19     6     7   ar
    20     7     8   ar
    21     8     9   ar
    22    11    12    1
    23    12    13   ar
    24    13    14   ar
    25    14    15   ar
    26    15    16   ar
    27    16    17   ar
    28     9     1    1
    29    17    12   ar
    30    27    23   ar
    31     9     4   ar
