@<TRIPOS>MOLECULE
*****
 30 32 0 0 0
SMALL
GASTEIGER

@<TRIPOS>ATOM
      1 N          65.4367   90.8266   13.0086 N.am    1  UNL1       -0.2916
      2 C          64.1956   90.2465   13.6193 C.2     1  UNL1        0.2484
      3 O          63.2280   91.1370   14.3408 O.2     1  UNL1       -0.2701
      4 H          66.0718   90.2420   12.5350 H       1  UNL1        0.1502
      5 C          63.9221   88.7757   13.5086 C.ar    1  UNL1        0.0808
      6 C          64.3853   87.8433   14.5884 C.ar    1  UNL1        0.0068
      7 C          64.1118   86.3727   14.4776 C.ar    1  UNL1        0.0003
      8 C          63.3750   85.8344   13.2870 C.ar    1  UNL1        0.0022
      9 C          62.9118   86.7668   12.2072 C.ar    1  UNL1        0.0298
     10 C          63.1853   88.2375   12.3180 C.ar    1  UNL1        0.1444
     11 F          62.7221   89.1699   11.2382 F       1  UNL1       -0.2040
     12 C          63.1015   84.3637   13.1763 C.ar    1  UNL1        0.0001
     13 C          62.6080   83.6007   14.3697 C.ar    1  UNL1        0.0000
     14 C          62.3345   82.1299   14.2589 C.ar    1  UNL1        0.0000
     15 C          62.5545   81.4223   12.9548 C.ar    1  UNL1        0.0000
     16 C          63.0480   82.1854   11.7613 C.ar    1  UNL1        0.0000
     17 C          63.3215   83.6560   11.8721 C.ar    1  UNL1        0.0000
     18 C          65.7103   92.2973   13.1193 C.3     1  UNL1        0.1945
     19 C          66.2564   92.8645   14.3960 C.2     1  UNL1        0.3369
     20 O          65.4535   92.7760   15.6600 O.2     1  UNL1       -0.2482
     21 O          67.6054   93.5202   14.4088 O.3     1  UNL1       -0.4511
     22 C          69.2805   94.5548   16.1040 C.3     1  UNL1        0.0473
     23 C          68.4981   93.3761   15.6056 C.3     1  UNL1        0.1691
     24 C          68.6084   92.0532   16.3041 C.3     1  UNL1        0.0473
     25 C          65.4376   93.2007   11.9534 C.3     1  UNL1        0.1386
     26 N          66.5155   93.4708   10.9458 N.ar    1  UNL1       -0.3055
     27 C          67.3854   92.4410   10.2878 C.ar    1  UNL1        0.0981
     28 C          68.3202   93.1518    9.3546 C.ar    1  UNL1        0.1193
     29 N          68.0280   94.6209    9.4358 N.ar    1  UNL1       -0.2223
     30 C          66.9127   94.8180   10.4192 C.ar    1  UNL1        0.1787
@<TRIPOS>BOND
     1    22    23    1
     2    23    24    1
     3    23    21    1
     4    21    19    1
     5    19    20    2
     6    19    18    1
     7    18    25    1
     8    25    26    1
     9    26    27   ar
    10    27    28   ar
    11    28    29   ar
    12    29    30   ar
    13    18     1    1
    14     1     2   am
    15     2     3    2
    16     2     5    1
    17     5     6   ar
    18     6     7   ar
    19     7     8   ar
    20     8    12    1
    21    12    13   ar
    22    13    14   ar
    23    14    15   ar
    24    15    16   ar
    25    16    17   ar
    26     8     9   ar
    27     9    10   ar
    28    10    11    1
    29    30    26   ar
    30    10     5   ar
    31    17    12   ar
    32     1     4    1
@<TRIPOS>MOLECULE
*****
 30 32 0 0 0
SMALL
GASTEIGER

@<TRIPOS>ATOM
      1 N          65.4687   92.6276   11.5927 N.am    1  UNL1       -0.2916
      2 C          64.4477   91.7819   12.2942 C.2     1  UNL1        0.2484
      3 O          64.2612   91.9070   13.7773 O.2     1  UNL1       -0.2701
      4 H          65.5911   92.5454   10.6193 H       1  UNL1        0.1502
      5 C          63.6130   90.8109   11.5127 C.ar    1  UNL1        0.0808
      6 C          63.0240   91.2192   10.1950 C.ar    1  UNL1        0.0068
      7 C          62.1894   90.2483    9.4135 C.ar    1  UNL1        0.0003
      8 C          61.9439   88.8691    9.9497 C.ar    1  UNL1        0.0022
      9 C          62.5329   88.4608   11.2673 C.ar    1  UNL1        0.0298
     10 C          63.3675   89.4317   12.0488 C.ar    1  UNL1        0.1444
     11 F          63.9566   89.0234   13.3666 F       1  UNL1       -0.2040
     12 C          61.1093   87.8982    9.1681 C.ar    1  UNL1        0.0001
     13 C          61.6480   86.5360    8.8456 C.ar    1  UNL1        0.0000
     14 C          60.8134   85.5650    8.0640 C.ar    1  UNL1        0.0000
     15 C          59.4400   85.9564    7.6050 C.ar    1  UNL1        0.0000
     16 C          58.9013   87.3187    7.9276 C.ar    1  UNL1        0.0000
     17 C          59.7359   88.2896    8.7091 C.ar    1  UNL1        0.0000
     18 C          66.3033   93.5985   12.3743 C.3     1  UNL1        0.1945
     19 C          67.2188   93.1014   13.4536 C.2     1  UNL1        0.3369
     20 O          68.2407   92.0479   13.1440 O.2     1  UNL1       -0.2482
     21 O          67.1122   93.6579   14.8425 O.3     1  UNL1       -0.4511
     22 C          68.3164   92.1090   16.5457 C.3     1  UNL1        0.0473
     23 C          68.2160   93.4239   15.8309 C.3     1  UNL1        0.1691
     24 C          69.2194   94.5048   16.1044 C.3     1  UNL1        0.0473
     25 C          66.2225   95.0664   12.0765 C.3     1  UNL1        0.1386
     26 N          66.3567   95.5536   10.6642 N.ar    1  UNL1       -0.3055
     27 C          65.4727   96.5616    9.9916 C.ar    1  UNL1        0.0981
     28 C          65.9680   96.7494    8.5882 C.ar    1  UNL1        0.1193
     29 N          67.1582   95.8574    8.3936 N.ar    1  UNL1       -0.2223
     30 C          67.3984   95.1184    9.6766 C.ar    1  UNL1        0.1787
@<TRIPOS>BOND
     1    22    23    1
     2    23    24    1
     3    23    21    1
     4    21    19    1
     5    19    20    2
     6    19    18    1
     7    18    25    1
     8    25    26    1
     9    26    27   ar
    10    27    28   ar
    11    28    29   ar
    12    29    30   ar
    13    18     1    1
    14     1     2   am
    15     2     3    2
    16     2     5    1
    17     5     6   ar
    18     6     7   ar
    19     7     8   ar
    20     8    12    1
    21    12    13   ar
    22    13    14   ar
    23    14    15   ar
    24    15    16   ar
    25    16    17   ar
    26     8     9   ar
    27     9    10   ar
    28    10    11    1
    29    30    26   ar
    30    10     5   ar
    31    17    12   ar
    32     1     4    1
@<TRIPOS>MOLECULE
*****
 30 32 0 0 0
SMALL
GASTEIGER

@<TRIPOS>ATOM
      1 N          64.8111   90.0417   12.8253 N.am    1  UNL1       -0.2916
      2 C          63.4466   89.4201   12.7836 C.2     1  UNL1        0.2484
      3 O          62.2260   90.2915   12.7576 O.2     1  UNL1       -0.2701
      4 H          65.6123   89.4697   12.8424 H       1  UNL1        0.1502
      5 C          63.3027   87.9271   12.7679 C.ar    1  UNL1        0.0808
      6 C          62.5403   87.2587   11.6626 C.ar    1  UNL1        0.0068
      7 C          62.3964   85.7657   11.6469 C.ar    1  UNL1        0.0003
      8 C          63.0150   84.9411   12.7367 C.ar    1  UNL1        0.0022
      9 C          63.7774   85.6095   13.8420 C.ar    1  UNL1        0.0298
     10 C          63.9213   87.1025   13.8577 C.ar    1  UNL1        0.1444
     11 F          64.6838   87.7710   14.9630 F       1  UNL1       -0.2040
     12 C          62.8711   83.4481   12.7210 C.ar    1  UNL1        0.0001
     13 C          62.4597   82.7211   13.9668 C.ar    1  UNL1        0.0000
     14 C          62.3158   81.2281   13.9511 C.ar    1  UNL1        0.0000
     15 C          62.5833   80.4620   12.6895 C.ar    1  UNL1        0.0000
     16 C          62.9947   81.1891   11.4436 C.ar    1  UNL1        0.0000
     17 C          63.1386   82.6820   11.4594 C.ar    1  UNL1        0.0000
     18 C          64.9550   91.5347   12.8410 C.3     1  UNL1        0.1945
     19 C          64.8363   92.3131   11.5643 C.2     1  UNL1        0.3369
     20 O          63.9171   91.8373   10.4785 O.2     1  UNL1       -0.2482
     21 O          65.6367   93.5672   11.3732 O.3     1  UNL1       -0.4511
     22 C          67.0796   94.8542    9.6379 C.3     1  UNL1        0.0473
     23 C          66.7665   93.5929   10.3868 C.3     1  UNL1        0.1691
     24 C          67.5831   92.3573   10.1494 C.3     1  UNL1        0.0473
     25 C          65.2177   92.2493   14.1334 C.3     1  UNL1        0.1386
     26 N          66.6277   92.4727   14.5938 N.ar    1  UNL1       -0.3055
     27 C          67.0436   93.0218   15.9262 C.ar    1  UNL1        0.0981
     28 C          68.5423   93.0746   15.9585 C.ar    1  UNL1        0.1193
     29 N          69.0527   92.5581   14.6459 N.ar    1  UNL1       -0.2223
     30 C          67.8693   92.1861   13.8025 C.ar    1  UNL1        0.1787
@<TRIPOS>BOND
     1    22    23    1
     2    23    24    1
     3    23    21    1
     4    21    19    1
     5    19    20    2
     6    19    18    1
     7    18    25    1
     8    25    26    1
     9    26    27   ar
    10    27    28   ar
    11    28    29   ar
    12    29    30   ar
    13    18     1    1
    14     1     2   am
    15     2     3    2
    16     2     5    1
    17     5     6   ar
    18     6     7   ar
    19     7     8   ar
    20     8    12    1
    21    12    13   ar
    22    13    14   ar
    23    14    15   ar
    24    15    16   ar
    25    16    17   ar
    26     8     9   ar
    27     9    10   ar
    28    10    11    1
    29    30    26   ar
    30    10     5   ar
    31    17    12   ar
    32     1     4    1
@<TRIPOS>MOLECULE
*****
 30 32 0 0 0
SMALL
GASTEIGER

@<TRIPOS>ATOM
      1 N          65.4946   91.1521   12.9475 N.am    1  UNL1       -0.2916
      2 C          64.3823   90.5511   13.7546 C.2     1  UNL1        0.2484
      3 O          63.5983   91.4066   14.7052 O.2     1  UNL1       -0.2701
      4 H          66.0091   90.5906   12.3236 H       1  UNL1        0.1502
      5 C          64.0538   89.0945   13.6111 C.ar    1  UNL1        0.0808
      6 C          64.4654   88.1241   14.6783 C.ar    1  UNL1        0.0068
      7 C          64.1369   86.6676   14.5347 C.ar    1  UNL1        0.0003
      8 C          63.3968   86.1815   13.3240 C.ar    1  UNL1        0.0022
      9 C          62.9851   87.1518   12.2568 C.ar    1  UNL1        0.0298
     10 C          63.3136   88.6083   12.4004 C.ar    1  UNL1        0.1444
     11 F          62.9020   89.5788   11.3331 F       1  UNL1       -0.2040
     12 C          63.0683   84.7249   13.1805 C.ar    1  UNL1        0.0001
     13 C          62.6277   83.9341   14.3765 C.ar    1  UNL1        0.0000
     14 C          62.2992   82.4775   14.2330 C.ar    1  UNL1        0.0000
     15 C          62.4113   81.8118   12.8935 C.ar    1  UNL1        0.0000
     16 C          62.8519   82.6027   11.6974 C.ar    1  UNL1        0.0000
     17 C          63.1804   84.0592   11.8410 C.ar    1  UNL1        0.0000
     18 C          65.8231   92.6087   13.0910 C.3     1  UNL1        0.1945
     19 C          65.9968   93.4622   11.8698 C.2     1  UNL1        0.3369
     20 O          66.0234   94.9566   11.9968 O.2     1  UNL1       -0.2482
     21 O          66.1440   92.8213   10.5217 O.3     1  UNL1       -0.4511
     22 C          68.4436   92.1357    9.5259 C.3     1  UNL1        0.0473
     23 C          67.3357   93.1370    9.6672 C.3     1  UNL1        0.1691
     24 C          67.4196   94.4539    8.9541 C.3     1  UNL1        0.0473
     25 C          65.9779   93.2117   14.4557 C.3     1  UNL1        0.1386
     26 N          67.2952   93.1268   15.1681 N.ar    1  UNL1       -0.3055
     27 C          67.9182   91.8807   15.7242 C.ar    1  UNL1        0.0981
     28 C          69.2288   92.2569   16.3493 C.ar    1  UNL1        0.1193
     29 N          69.4158   93.7356   16.1795 N.ar    1  UNL1       -0.2223
     30 C          68.2208   94.2731   15.4495 C.ar    1  UNL1        0.1787
@<TRIPOS>BOND
     1    22    23    1
     2    23    24    1
     3    23    21    1
     4    21    19    1
     5    19    20    2
     6    19    18    1
     7    18    25    1
     8    25    26    1
     9    26    27   ar
    10    27    28   ar
    11    28    29   ar
    12    29    30   ar
    13    18     1    1
    14     1     2   am
    15     2     3    2
    16     2     5    1
    17     5     6   ar
    18     6     7   ar
    19     7     8   ar
    20     8    12    1
    21    12    13   ar
    22    13    14   ar
    23    14    15   ar
    24    15    16   ar
    25    16    17   ar
    26     8     9   ar
    27     9    10   ar
    28    10    11    1
    29    30    26   ar
    30    10     5   ar
    31    17    12   ar
    32     1     4    1
@<TRIPOS>MOLECULE
*****
 30 32 0 0 0
SMALL
GASTEIGER

@<TRIPOS>ATOM
      1 N          62.0475   88.9422    9.8106 N.am    1  UNL1       -0.2916
      2 C          61.8562   89.3762   11.2336 C.2     1  UNL1        0.2484
      3 O          60.5184   89.2166   11.8930 O.2     1  UNL1       -0.2701
      4 H          62.9256   89.0469    9.3778 H       1  UNL1        0.1502
      5 C          63.0027   89.9698   11.9973 C.ar    1  UNL1        0.0808
      6 C          63.4614   89.3340   13.2761 C.ar    1  UNL1        0.0068
      7 C          64.6078   89.9276   14.0397 C.ar    1  UNL1        0.0003
      8 C          65.2957   91.1571   13.5245 C.ar    1  UNL1        0.0022
      9 C          64.8370   91.7929   12.2458 C.ar    1  UNL1        0.0298
     10 C          63.6905   91.1992   11.4821 C.ar    1  UNL1        0.1444
     11 F          63.2318   91.8350   10.2033 F       1  UNL1       -0.2040
     12 C          66.4422   91.7507   14.2882 C.ar    1  UNL1        0.0001
     13 C          67.8150   91.7716   13.6842 C.ar    1  UNL1        0.0000
     14 C          68.9615   92.3652   14.4479 C.ar    1  UNL1        0.0000
     15 C          68.7351   92.9380   15.8156 C.ar    1  UNL1        0.0000
     16 C          67.3623   92.9170   16.4197 C.ar    1  UNL1        0.0000
     17 C          66.2158   92.3234   15.6560 C.ar    1  UNL1        0.0000
     18 C          60.9010   88.3485    9.0469 C.3     1  UNL1        0.1945
     19 C          59.9067   89.2447    8.3700 C.2     1  UNL1        0.3369
     20 O          59.3761   90.4517    9.0854 O.2     1  UNL1       -0.2482
     21 O          59.4429   88.9339    6.9778 O.3     1  UNL1       -0.4511
     22 C          60.4144   90.6516    5.2879 C.3     1  UNL1        0.0473
     23 C          59.2366   90.0442    5.9906 C.3     1  UNL1        0.1691
     24 C          57.8524   90.5473    5.7061 C.3     1  UNL1        0.0473
     25 C          60.7489   86.8588    8.9602 C.3     1  UNL1        0.1386
     26 N          61.6896   85.9639    9.7112 N.ar    1  UNL1       -0.3055
     27 C          61.6523   85.6832   11.1842 C.ar    1  UNL1        0.0981
     28 C          62.7724   84.7383   11.5045 C.ar    1  UNL1        0.1193
     29 N          63.5020   84.4351   10.2294 N.ar    1  UNL1       -0.2223
     30 C          62.8327   85.1926    9.1211 C.ar    1  UNL1        0.1787
@<TRIPOS>BOND
     1    22    23    1
     2    23    24    1
     3    23    21    1
     4    21    19    1
     5    19    20    2
     6    19    18    1
     7    18    25    1
     8    25    26    1
     9    26    27   ar
    10    27    28   ar
    11    28    29   ar
    12    29    30   ar
    13    18     1    1
    14     1     2   am
    15     2     3    2
    16     2     5    1
    17     5     6   ar
    18     6     7   ar
    19     7     8   ar
    20     8    12    1
    21    12    13   ar
    22    13    14   ar
    23    14    15   ar
    24    15    16   ar
    25    16    17   ar
    26     8     9   ar
    27     9    10   ar
    28    10    11    1
    29    30    26   ar
    30    10     5   ar
    31    17    12   ar
    32     1     4    1
@<TRIPOS>MOLECULE
*****
 30 32 0 0 0
SMALL
GASTEIGER

@<TRIPOS>ATOM
      1 N          62.7831   87.6824   11.0209 N.am    1  UNL1       -0.2916
      2 C          62.3864   88.7981   11.9416 C.2     1  UNL1        0.2484
      3 O          60.9358   89.0689   12.2104 O.2     1  UNL1       -0.2701
      4 H          63.7352   87.5047   10.8445 H       1  UNL1        0.1502
      5 C          63.4405   89.6431   12.5937 C.ar    1  UNL1        0.0808
      6 C          64.0471   89.2127   13.8962 C.ar    1  UNL1        0.0068
      7 C          65.1011   90.0576   14.5482 C.ar    1  UNL1        0.0003
      8 C          65.5484   91.3330   13.8976 C.ar    1  UNL1        0.0022
      9 C          64.9418   91.7634   12.5950 C.ar    1  UNL1        0.0298
     10 C          63.8878   90.9185   11.9431 C.ar    1  UNL1        0.1444
     11 F          63.2811   91.3489   10.6404 F       1  UNL1       -0.2040
     12 C          66.6025   92.1780   14.5496 C.ar    1  UNL1        0.0001
     13 C          66.6142   93.6622   14.3327 C.ar    1  UNL1        0.0000
     14 C          67.6683   94.5072   14.9848 C.ar    1  UNL1        0.0000
     15 C          68.7105   93.8679   15.8537 C.ar    1  UNL1        0.0000
     16 C          68.6987   92.3837   16.0706 C.ar    1  UNL1        0.0000
     17 C          67.6447   91.5388   15.4186 C.ar    1  UNL1        0.0000
     18 C          61.7290   86.8374   10.3689 C.3     1  UNL1        0.1945
     19 C          61.0753   87.3001    9.1006 C.2     1  UNL1        0.3369
     20 O          60.7713   88.7555    8.9013 O.2     1  UNL1       -0.2482
     21 O          60.7256   86.3077    8.0317 O.3     1  UNL1       -0.4511
     22 C          61.4785   84.5537    6.2690 C.3     1  UNL1        0.0473
     23 C          61.7914   85.4296    7.4458 C.3     1  UNL1        0.1691
     24 C          63.1700   85.4274    8.0368 C.3     1  UNL1        0.0473
     25 C          61.3288   85.5298   10.9851 C.3     1  UNL1        0.1386
     26 N          62.3457   84.7010   11.7125 N.ar    1  UNL1       -0.3055
     27 C          62.6918   84.8075   13.1681 C.ar    1  UNL1        0.0981
     28 C          63.7550   83.7926   13.4672 C.ar    1  UNL1        0.1193
     29 N          64.0660   83.0588   12.1963 N.ar    1  UNL1       -0.2223
     30 C          63.1950   83.6203   11.1119 C.ar    1  UNL1        0.1787
@<TRIPOS>BOND
     1    22    23    1
     2    23    24    1
     3    23    21    1
     4    21    19    1
     5    19    20    2
     6    19    18    1
     7    18    25    1
     8    25    26    1
     9    26    27   ar
    10    27    28   ar
    11    28    29   ar
    12    29    30   ar
    13    18     1    1
    14     1     2   am
    15     2     3    2
    16     2     5    1
    17     5     6   ar
    18     6     7   ar
    19     7     8   ar
    20     8    12    1
    21    12    13   ar
    22    13    14   ar
    23    14    15   ar
    24    15    16   ar
    25    16    17   ar
    26     8     9   ar
    27     9    10   ar
    28    10    11    1
    29    30    26   ar
    30    10     5   ar
    31    17    12   ar
    32     1     4    1
@<TRIPOS>MOLECULE
*****
 30 32 0 0 0
SMALL
GASTEIGER

@<TRIPOS>ATOM
      1 N          62.8952   88.2192   11.1465 N.am    1  UNL1       -0.2916
      2 C          62.7479   89.4735   11.9558 C.2     1  UNL1        0.2484
      3 O          61.7998   89.5094   13.1176 O.2     1  UNL1       -0.2701
      4 H          63.5176   88.1956   10.3840 H       1  UNL1        0.1502
      5 C          63.5489   90.6919   11.6034 C.ar    1  UNL1        0.0808
      6 C          63.3508   91.3614   10.2759 C.ar    1  UNL1        0.0068
      7 C          64.1517   92.5797    9.9235 C.ar    1  UNL1        0.0003
      8 C          65.1506   93.1285   10.8987 C.ar    1  UNL1        0.0022
      9 C          65.3486   92.4590   12.2263 C.ar    1  UNL1        0.0298
     10 C          64.5478   91.2406   12.5786 C.ar    1  UNL1        0.1444
     11 F          64.7457   90.5710   13.9062 F       1  UNL1       -0.2040
     12 C          65.9515   94.3469   10.5463 C.ar    1  UNL1        0.0001
     13 C          65.8183   95.5953   11.3671 C.ar    1  UNL1        0.0000
     14 C          66.6192   96.8137   11.0147 C.ar    1  UNL1        0.0000
     15 C          67.5534   96.7836    9.8414 C.ar    1  UNL1        0.0000
     16 C          67.6865   95.5352    9.0206 C.ar    1  UNL1        0.0000
     17 C          66.8856   94.3169    9.3730 C.ar    1  UNL1        0.0000
     18 C          62.0943   87.0008   11.4989 C.3     1  UNL1        0.1945
     19 C          62.7241   85.8919   12.2887 C.2     1  UNL1        0.3369
     20 O          63.6290   86.2122   13.4414 O.2     1  UNL1       -0.2482
     21 O          62.4490   84.4627   11.9258 O.3     1  UNL1       -0.4511
     22 C          63.9813   83.4137   10.1087 C.3     1  UNL1        0.0473
     23 C          63.5807   83.5538   11.5474 C.3     1  UNL1        0.1691
     24 C          64.3118   82.7849   12.6077 C.3     1  UNL1        0.0473
     25 C          60.6637   86.8913   11.0616 C.3     1  UNL1        0.1386
     26 N          60.2495   87.4071    9.7154 N.ar    1  UNL1       -0.3055
     27 C          60.1488   88.8496    9.3167 C.ar    1  UNL1        0.0981
     28 C          59.7002   88.9050    7.8864 C.ar    1  UNL1        0.1193
     29 N          59.5237   87.4966    7.4011 N.ar    1  UNL1       -0.2223
     30 C          59.8632   86.5709    8.5316 C.ar    1  UNL1        0.1787
@<TRIPOS>BOND
     1    22    23    1
     2    23    24    1
     3    23    21    1
     4    21    19    1
     5    19    20    2
     6    19    18    1
     7    18    25    1
     8    25    26    1
     9    26    27   ar
    10    27    28   ar
    11    28    29   ar
    12    29    30   ar
    13    18     1    1
    14     1     2   am
    15     2     3    2
    16     2     5    1
    17     5     6   ar
    18     6     7   ar
    19     7     8   ar
    20     8    12    1
    21    12    13   ar
    22    13    14   ar
    23    14    15   ar
    24    15    16   ar
    25    16    17   ar
    26     8     9   ar
    27     9    10   ar
    28    10    11    1
    29    30    26   ar
    30    10     5   ar
    31    17    12   ar
    32     1     4    1
@<TRIPOS>MOLECULE
*****
 30 32 0 0 0
SMALL
GASTEIGER

@<TRIPOS>ATOM
      1 N          62.8065   87.7665   11.4364 N.am    1  UNL1       -0.2916
      2 C          62.4722   89.0462   12.1438 C.2     1  UNL1        0.2484
      3 O          61.0510   89.5224   12.2011 O.2     1  UNL1       -0.2701
      4 H          63.7393   87.4539   11.3988 H       1  UNL1        0.1502
      5 C          63.5592   89.8498   12.7941 C.ar    1  UNL1        0.0808
      6 C          64.1487   89.3978   14.0972 C.ar    1  UNL1        0.0068
      7 C          65.2357   90.2013   14.7475 C.ar    1  UNL1        0.0003
      8 C          65.7331   91.4568   14.0946 C.ar    1  UNL1        0.0022
      9 C          65.1436   91.9088   12.7915 C.ar    1  UNL1        0.0298
     10 C          64.0566   91.1053   12.1413 C.ar    1  UNL1        0.1444
     11 F          63.4670   91.5573   10.8381 F       1  UNL1       -0.2040
     12 C          66.8201   92.2604   14.7449 C.ar    1  UNL1        0.0001
     13 C          66.8757   93.7461   14.5462 C.ar    1  UNL1        0.0000
     14 C          67.9627   94.5496   15.1965 C.ar    1  UNL1        0.0000
     15 C          68.9940   93.8674   16.0455 C.ar    1  UNL1        0.0000
     16 C          68.9384   92.3816   16.2443 C.ar    1  UNL1        0.0000
     17 C          67.8514   91.5781   15.5940 C.ar    1  UNL1        0.0000
     18 C          61.7195   86.9629   10.7860 C.3     1  UNL1        0.1945
     19 C          62.0028   85.5719   10.3015 C.2     1  UNL1        0.3369
     20 O          62.1507   85.3049    8.8328 O.2     1  UNL1       -0.2482
     21 O          62.1381   84.4479   11.2854 O.3     1  UNL1       -0.4511
     22 C          64.1731   83.0465   10.4825 C.3     1  UNL1        0.0473
     23 C          63.4842   83.8420   11.5514 C.3     1  UNL1        0.1691
     24 C          64.1415   84.0315   12.8863 C.3     1  UNL1        0.0473
     25 C          60.3493   87.5504   10.6204 C.3     1  UNL1        0.1386
     26 N          59.8329   87.8742    9.2498 N.ar    1  UNL1       -0.3055
     27 C          60.0434   89.1618    8.5097 C.ar    1  UNL1        0.0981
     28 C          59.3559   89.0506    7.1812 C.ar    1  UNL1        0.1193
     29 N          58.7204   87.6942    7.1003 N.ar    1  UNL1       -0.2223
     30 C          59.0152   86.9672    8.3788 C.ar    1  UNL1        0.1787
@<TRIPOS>BOND
     1    22    23    1
     2    23    24    1
     3    23    21    1
     4    21    19    1
     5    19    20    2
     6    19    18    1
     7    18    25    1
     8    25    26    1
     9    26    27   ar
    10    27    28   ar
    11    28    29   ar
    12    29    30   ar
    13    18     1    1
    14     1     2   am
    15     2     3    2
    16     2     5    1
    17     5     6   ar
    18     6     7   ar
    19     7     8   ar
    20     8    12    1
    21    12    13   ar
    22    13    14   ar
    23    14    15   ar
    24    15    16   ar
    25    16    17   ar
    26     8     9   ar
    27     9    10   ar
    28    10    11    1
    29    30    26   ar
    30    10     5   ar
    31    17    12   ar
    32     1     4    1
@<TRIPOS>MOLECULE
*****
 30 32 0 0 0
SMALL
GASTEIGER

@<TRIPOS>ATOM
      1 N          62.5135   88.1207   11.0235 N.am    1  UNL1       -0.2916
      2 C          62.2824   89.2012   12.0379 C.2     1  UNL1        0.2484
      3 O          60.8838   89.5718   12.4336 O.2     1  UNL1       -0.2701
      4 H          63.4315   87.8775   10.7638 H       1  UNL1        0.1502
      5 C          63.4500   89.9110   12.6569 C.ar    1  UNL1        0.0808
      6 C          64.0382   89.4081   13.9418 C.ar    1  UNL1        0.0068
      7 C          65.2057   90.1179   14.5606 C.ar    1  UNL1        0.0003
      8 C          65.7850   91.3307   13.8946 C.ar    1  UNL1        0.0022
      9 C          65.1968   91.8336   12.6097 C.ar    1  UNL1        0.0298
     10 C          64.0293   91.1238   11.9908 C.ar    1  UNL1        0.1444
     11 F          63.4410   91.6267   10.7058 F       1  UNL1       -0.2040
     12 C          66.9526   92.0405   14.5135 C.ar    1  UNL1        0.0001
     13 C          66.7585   92.8658   15.7509 C.ar    1  UNL1        0.0000
     14 C          67.9260   93.5757   16.3698 C.ar    1  UNL1        0.0000
     15 C          69.2877   93.4602   15.7513 C.ar    1  UNL1        0.0000
     16 C          69.4817   92.6349   14.5138 C.ar    1  UNL1        0.0000
     17 C          68.3142   91.9251   13.8949 C.ar    1  UNL1        0.0000
     18 C          61.3460   87.4109   10.4045 C.3     1  UNL1        0.1945
     19 C          60.1188   88.1818   10.0176 C.2     1  UNL1        0.3369
     20 O          58.8896   88.1147   10.8747 O.2     1  UNL1       -0.2482
     21 O          60.1209   89.0199    8.7735 O.3     1  UNL1       -0.4511
     22 C          59.2294   89.4393    6.3695 C.3     1  UNL1        0.0473
     23 C          59.4595   88.5127    7.5264 C.3     1  UNL1        0.1691
     24 C          59.0283   87.0789    7.4362 C.3     1  UNL1        0.0473
     25 C          61.4056   85.9301   10.1726 C.3     1  UNL1        0.1386
     26 N          62.3559   85.0843   10.9672 N.ar    1  UNL1       -0.3055
     27 C          63.3227   84.0825   10.4088 C.ar    1  UNL1        0.0981
     28 C          64.0706   83.4707   11.5561 C.ar    1  UNL1        0.1193
     29 N          63.5661   84.0945   12.8236 N.ar    1  UNL1       -0.2223
     30 C          62.5064   85.0917   12.4595 C.ar    1  UNL1        0.1787
@<TRIPOS>BOND
     1    22    23    1
     2    23    24    1
     3    23    21    1
     4    21    19    1
     5    19    20    2
     6    19    18    1
     7    18    25    1
     8    25    26    1
     9    26    27   ar
    10    27    28   ar
    11    28    29   ar
    12    29    30   ar
    13    18     1    1
    14     1     2   am
    15     2     3    2
    16     2     5    1
    17     5     6   ar
    18     6     7   ar
    19     7     8   ar
    20     8    12    1
    21    12    13   ar
    22    13    14   ar
    23    14    15   ar
    24    15    16   ar
    25    16    17   ar
    26     8     9   ar
    27     9    10   ar
    28    10    11    1
    29    30    26   ar
    30    10     5   ar
    31    17    12   ar
    32     1     4    1
