@<TRIPOS>MOLECULE
*****
 39 43 0 0 0
SMALL
GASTEIGER

@<TRIPOS>ATOM
      1 C          61.4253   90.6655   10.4374 C.3     1  UNL1        0.0310
      2 C          61.5731   89.1831   10.6122 C.ar    1  UNL1       -0.0218
      3 C          60.6882   88.2456    9.8452 C.ar    1  UNL1       -0.0030
      4 C          60.8360   86.7631   10.0201 C.ar    1  UNL1        0.0144
      5 C          61.8686   86.2183   10.9618 C.ar    1  UNL1        0.0505
      6 C          62.7533   87.1557   11.7287 C.ar    1  UNL1        0.0144
      7 C          62.6056   88.6382   11.5539 C.ar    1  UNL1       -0.0026
      8 C          63.4905   89.5757   12.3209 C.ar    1  UNL1        0.0028
      9 C          63.9652   89.2040   13.6944 C.ar    1  UNL1        0.0015
     10 C          64.8499   90.1415   14.4614 C.ar    1  UNL1        0.0178
     11 C          65.2601   91.4506   13.8549 C.ar    1  UNL1        0.0847
     12 C          64.7854   91.8223   12.4814 C.ar    1  UNL1        0.1515
     13 C          63.9006   90.8848   11.7144 C.ar    1  UNL1        0.0382
     14 O          65.0739   93.0682   11.6974 O.3     1  UNL1       -0.4807
     15 C          65.9085   94.2501   12.0933 C.3     1  UNL1        0.1466
     16 C          66.7185   95.4772   12.3896 C.3     1  UNL1        0.0726
     17 C          66.8135   96.5765   11.3735 C.3     1  UNL1        0.1458
     18 O          66.0985   96.4487   10.0611 O.3     1  UNL1       -0.3535
     19 C          65.2884   95.2215    9.7648 C.3     1  UNL1        0.1458
     20 C          65.1934   94.1222   10.7809 C.3     1  UNL1        0.0726
     21 C          66.6605   94.4780   13.3710 C.3     1  UNL1        0.1254
     22 C          66.7638   93.5803   14.5683 C.2     1  UNL1        0.2297
     23 O          67.6011   94.0984   15.6999 O.2     1  UNL1       -0.2746
     24 N          66.1405   92.2330   14.7836 N.am    1  UNL1       -0.2814
     25 H          66.3351   91.8057   15.6490 H       1  UNL1        0.1549
     26 N          62.0163   84.7358   11.1366 N.am    1  UNL1       -0.2804
     27 C          62.3278   84.1675   12.4894 C.2     1  UNL1        0.2496
     28 O          62.4916   85.0815   13.6673 O.2     1  UNL1       -0.2698
     29 H          61.9088   84.1359   10.3634 H       1  UNL1        0.1552
     30 C          62.4756   82.6850   12.6642 C.ar    1  UNL1        0.0567
     31 C          62.4422   82.0848   14.0384 C.ar    1  UNL1        0.0252
     32 C          62.5900   80.6024   14.2132 C.ar    1  UNL1        0.0989
     33 N          62.7711   79.7202   13.0137 N.ar    1  UNL1       -0.2399
     34 C          62.8044   80.3203   11.6395 C.ar    1  UNL1        0.1528
     35 C          62.6567   81.8027   11.4646 C.ar    1  UNL1        0.0276
     36 C          62.9855   79.4381   10.4399 C.3     1  UNL1        0.4348
     37 F          63.1666   78.5560    9.2403 F       1  UNL1       -0.1644
     38 F          63.1854   80.6500    9.5788 F       1  UNL1       -0.1644
     39 F          62.7856   78.2262   11.3009 F       1  UNL1       -0.1644
@<TRIPOS>BOND
     1     1     2    1
     2     2     3   ar
     3     3     4   ar
     4     4     5   ar
     5     5    26    1
     6    26    27   am
     7    27    28    2
     8    27    30    1
     9    30    31   ar
    10    31    32   ar
    11    32    33   ar
    12    33    34   ar
    13    34    36    1
    14    36    37    1
    15    36    38    1
    16    36    39    1
    17    34    35   ar
    18     5     6   ar
    19     6     7   ar
    20     7     8    1
    21     8     9   ar
    22     9    10   ar
    23    10    11   ar
    24    11    12   ar
    25    12    13   ar
    26    12    14    1
    27    14    15    1
    28    15    16    1
    29    16    17    1
    30    17    18    1
    31    18    19    1
    32    19    20    1
    33    15    21    1
    34    21    22    1
    35    22    23    2
    36    22    24   am
    37     7     2   ar
    38    13     8   ar
    39    20    15    1
    40    35    30   ar
    41    24    11    1
    42    26    29    1
    43    24    25    1
@<TRIPOS>MOLECULE
*****
 39 43 0 0 0
SMALL
GASTEIGER

@<TRIPOS>ATOM
      1 C          60.0635   87.8329    8.6430 C.3     1  UNL1        0.0310
      2 C          60.8625   88.6371    9.6253 C.ar    1  UNL1       -0.0218
      3 C          60.5319   90.0819    9.8565 C.ar    1  UNL1       -0.0030
      4 C          61.3309   90.8861   10.8388 C.ar    1  UNL1        0.0144
      5 C          62.4603   90.2456   11.5898 C.ar    1  UNL1        0.0505
      6 C          62.7908   88.8009   11.3586 C.ar    1  UNL1        0.0144
      7 C          61.9919   87.9967   10.3764 C.ar    1  UNL1       -0.0026
      8 C          62.3224   86.5518   10.1452 C.ar    1  UNL1        0.0028
      9 C          62.7879   86.0959    8.7941 C.ar    1  UNL1        0.0015
     10 C          63.1184   84.6512    8.5629 C.ar    1  UNL1        0.0178
     11 C          62.9835   83.6624    9.6827 C.ar    1  UNL1        0.0847
     12 C          62.5181   84.1184   11.0338 C.ar    1  UNL1        0.1515
     13 C          62.1875   85.5631   11.2650 C.ar    1  UNL1        0.0382
     14 O          62.3161   83.3042   12.2774 O.3     1  UNL1       -0.4807
     15 C          62.5298   81.8330   12.4770 C.3     1  UNL1        0.1466
     16 C          62.7108   80.3757   12.7829 C.3     1  UNL1        0.0726
     17 C          62.4173   79.8563   14.1591 C.3     1  UNL1        0.1458
     18 O          61.9428   80.7940   15.2294 O.3     1  UNL1       -0.3535
     19 C          61.7618   82.2512   14.9234 C.3     1  UNL1        0.1458
     20 C          62.0553   82.7707   13.5472 C.3     1  UNL1        0.0726
     21 C          62.9982   80.8125   11.4823 C.3     1  UNL1        0.1254
     22 C          63.3685   81.0113   10.0424 C.2     1  UNL1        0.2297
     23 O          63.8028   79.7789    9.3060 O.2     1  UNL1       -0.2746
     24 N          63.3620   82.2797    9.2415 N.am    1  UNL1       -0.2814
     25 H          63.6434   82.1931    8.3020 H       1  UNL1        0.1549
     26 N          63.2592   91.0499   12.5721 N.am    1  UNL1       -0.2804
     27 C          63.9456   90.3674   13.7180 C.2     1  UNL1        0.2496
     28 O          63.8331   88.8806   13.8816 O.2     1  UNL1       -0.2698
     29 H          63.3331   92.0257   12.4647 H       1  UNL1        0.1552
     30 C          64.7446   91.1716   14.7003 C.ar    1  UNL1        0.0567
     31 C          64.1297   91.5905   16.0027 C.ar    1  UNL1        0.0252
     32 C          64.9286   92.3948   16.9850 C.ar    1  UNL1        0.0989
     33 N          66.3424   92.7801   16.6648 N.ar    1  UNL1       -0.2399
     34 C          66.9574   92.3613   15.3625 C.ar    1  UNL1        0.1528
     35 C          66.1585   91.5570   14.3801 C.ar    1  UNL1        0.0276
     36 C          68.3712   92.7466   15.0422 C.3     1  UNL1        0.4348
     37 F          69.7851   93.1320   14.7221 F       1  UNL1       -0.1644
     38 F          68.3594   93.7305   16.1745 F       1  UNL1       -0.1644
     39 F          68.3830   91.7627   13.9101 F       1  UNL1       -0.1644
@<TRIPOS>BOND
     1     1     2    1
     2     2     3   ar
     3     3     4   ar
     4     4     5   ar
     5     5    26    1
     6    26    27   am
     7    27    28    2
     8    27    30    1
     9    30    31   ar
    10    31    32   ar
    11    32    33   ar
    12    33    34   ar
    13    34    36    1
    14    36    37    1
    15    36    38    1
    16    36    39    1
    17    34    35   ar
    18     5     6   ar
    19     6     7   ar
    20     7     8    1
    21     8     9   ar
    22     9    10   ar
    23    10    11   ar
    24    11    12   ar
    25    12    13   ar
    26    12    14    1
    27    14    15    1
    28    15    16    1
    29    16    17    1
    30    17    18    1
    31    18    19    1
    32    19    20    1
    33    15    21    1
    34    21    22    1
    35    22    23    2
    36    22    24   am
    37     7     2   ar
    38    13     8   ar
    39    20    15    1
    40    35    30   ar
    41    24    11    1
    42    26    29    1
    43    24    25    1
@<TRIPOS>MOLECULE
*****
 39 43 0 0 0
SMALL
GASTEIGER

@<TRIPOS>ATOM
      1 C          59.7764   90.8807   10.9079 C.3     1  UNL1        0.0310
      2 C          60.2823   89.4725   11.0125 C.ar    1  UNL1       -0.0218
      3 C          59.3127   88.3289   11.0626 C.ar    1  UNL1       -0.0030
      4 C          59.8187   86.9207   11.1672 C.ar    1  UNL1        0.0144
      5 C          61.2941   86.6560   11.2217 C.ar    1  UNL1        0.0505
      6 C          62.2636   87.7995   11.1716 C.ar    1  UNL1        0.0144
      7 C          61.7577   89.2077   11.0670 C.ar    1  UNL1       -0.0026
      8 C          62.7273   90.3512   11.0169 C.ar    1  UNL1        0.0028
      9 C          62.8906   91.1411    9.7522 C.ar    1  UNL1        0.0015
     10 C          63.8601   92.2845    9.7021 C.ar    1  UNL1        0.0178
     11 C          64.6663   92.6381   10.9166 C.ar    1  UNL1        0.0847
     12 C          64.5030   91.8482   12.1812 C.ar    1  UNL1        0.1515
     13 C          63.5334   90.7047   12.2314 C.ar    1  UNL1        0.0382
     14 O          65.2027   92.0314   13.4953 O.3     1  UNL1       -0.4807
     15 C          66.2385   93.0498   13.8694 C.3     1  UNL1        0.1466
     16 C          67.2766   94.0221   14.3456 C.3     1  UNL1        0.0726
     17 C          67.7881   93.9434   15.7535 C.3     1  UNL1        0.1458
     18 O          67.2615   92.8923   16.6851 O.3     1  UNL1       -0.3535
     19 C          66.2234   91.9200   16.2089 C.3     1  UNL1        0.1458
     20 C          65.7120   91.9987   14.8010 C.3     1  UNL1        0.0726
     21 C          66.8305   94.1365   13.0217 C.3     1  UNL1        0.1254
     22 C          66.5329   94.4732   11.5905 C.2     1  UNL1        0.2297
     23 O          67.2997   95.6296   11.0209 O.2     1  UNL1       -0.2746
     24 N          65.5697   93.8063   10.6537 N.am    1  UNL1       -0.2814
     25 H          65.5244   94.1855    9.7463 H       1  UNL1        0.1549
     26 N          61.8000   85.2478   11.3263 N.am    1  UNL1       -0.2804
     27 C          62.3664   84.7486   12.6225 C.2     1  UNL1        0.2496
     28 O          62.4268   85.6577   13.8141 O.2     1  UNL1       -0.2698
     29 H          61.7604   84.6512   10.5442 H       1  UNL1        0.1552
     30 C          62.8723   83.3404   12.7271 C.ar    1  UNL1        0.0567
     31 C          63.5701   82.8849   13.9743 C.ar    1  UNL1        0.0252
     32 C          64.0761   81.4767   14.0789 C.ar    1  UNL1        0.0989
     33 N          63.8841   80.5240   12.9363 N.ar    1  UNL1       -0.2399
     34 C          63.1863   80.9795   11.6891 C.ar    1  UNL1        0.1528
     35 C          62.6804   82.3877   11.5844 C.ar    1  UNL1        0.0276
     36 C          62.9944   80.0268   10.5465 C.3     1  UNL1        0.4348
     37 F          62.8025   79.0743    9.4037 F       1  UNL1       -0.1644
     38 F          63.3940   81.1037    9.5816 F       1  UNL1       -0.1644
     39 F          62.5949   78.9500   11.5112 F       1  UNL1       -0.1644
@<TRIPOS>BOND
     1     1     2    1
     2     2     3   ar
     3     3     4   ar
     4     4     5   ar
     5     5    26    1
     6    26    27   am
     7    27    28    2
     8    27    30    1
     9    30    31   ar
    10    31    32   ar
    11    32    33   ar
    12    33    34   ar
    13    34    36    1
    14    36    37    1
    15    36    38    1
    16    36    39    1
    17    34    35   ar
    18     5     6   ar
    19     6     7   ar
    20     7     8    1
    21     8     9   ar
    22     9    10   ar
    23    10    11   ar
    24    11    12   ar
    25    12    13   ar
    26    12    14    1
    27    14    15    1
    28    15    16    1
    29    16    17    1
    30    17    18    1
    31    18    19    1
    32    19    20    1
    33    15    21    1
    34    21    22    1
    35    22    23    2
    36    22    24   am
    37     7     2   ar
    38    13     8   ar
    39    20    15    1
    40    35    30   ar
    41    24    11    1
    42    26    29    1
    43    24    25    1
@<TRIPOS>MOLECULE
*****
 39 43 0 0 0
SMALL
GASTEIGER

@<TRIPOS>ATOM
      1 C          59.0798   87.2601    6.8468 C.3     1  UNL1        0.0310
      2 C          59.7414   87.9667    7.9927 C.ar    1  UNL1       -0.0218
      3 C          60.0681   87.2152    9.2492 C.ar    1  UNL1       -0.0030
      4 C          60.7297   87.9218   10.3951 C.ar    1  UNL1        0.0144
      5 C          61.0644   89.3798   10.2846 C.ar    1  UNL1        0.0505
      6 C          60.7376   90.1312    9.0282 C.ar    1  UNL1        0.0144
      7 C          60.0761   89.4246    7.8823 C.ar    1  UNL1       -0.0026
      8 C          59.7493   90.1761    6.6258 C.ar    1  UNL1        0.0028
      9 C          58.3240   90.5145    6.3035 C.ar    1  UNL1        0.0015
     10 C          57.9972   91.2659    5.0472 C.ar    1  UNL1        0.0178
     11 C          59.0957   91.6790    4.1131 C.ar    1  UNL1        0.0847
     12 C          60.5210   91.3406    4.4354 C.ar    1  UNL1        0.1515
     13 C          60.8479   90.5891    5.6918 C.ar    1  UNL1        0.0382
     14 O          61.7582   91.6553    3.6476 O.3     1  UNL1       -0.4807
     15 C          61.8754   92.3861    2.3429 C.3     1  UNL1        0.1466
     16 C          62.1036   93.1013    1.0443 C.3     1  UNL1        0.0726
     17 C          63.4958   93.2560    0.5078 C.3     1  UNL1        0.1458
     18 O          64.6598   92.6954    1.2699 O.3     1  UNL1       -0.3535
     19 C          64.4316   91.9801    2.5684 C.3     1  UNL1        0.1458
     20 C          63.0395   91.8255    3.1049 C.3     1  UNL1        0.0726
     21 C          60.7846   92.9827    1.5037 C.3     1  UNL1        0.1254
     22 C          59.3070   92.9958    1.7621 C.2     1  UNL1        0.2297
     23 O          58.4705   93.6795    0.7216 O.2     1  UNL1       -0.2746
     24 N          58.5554   92.4156    2.9234 N.am    1  UNL1       -0.2814
     25 H          57.5783   92.5339    2.9018 H       1  UNL1        0.1549
     26 N          61.7259   90.0863   11.4305 N.am    1  UNL1       -0.2804
     27 C          62.7457   89.3699   12.2654 C.2     1  UNL1        0.2496
     28 O          63.1038   87.9469   11.9543 O.2     1  UNL1       -0.2698
     29 H          61.4908   91.0203   11.6347 H       1  UNL1        0.1552
     30 C          63.4072   90.0764   13.4113 C.ar    1  UNL1        0.0567
     31 C          62.9147   89.8591   14.8113 C.ar    1  UNL1        0.0252
     32 C          63.5762   90.5657   15.9573 C.ar    1  UNL1        0.0989
     33 N          64.7302   91.4895   15.7031 N.ar    1  UNL1       -0.2399
     34 C          65.2228   91.7068   14.3032 C.ar    1  UNL1        0.1528
     35 C          64.5613   91.0003   13.1571 C.ar    1  UNL1        0.0276
     36 C          66.3768   92.6307   14.0490 C.3     1  UNL1        0.4348
     37 F          67.5309   93.5546   13.7949 F       1  UNL1       -0.1644
     38 F          66.2315   93.1927   15.4322 F       1  UNL1       -0.1644
     39 F          66.5222   92.0687   12.6659 F       1  UNL1       -0.1644
@<TRIPOS>BOND
     1     1     2    1
     2     2     3   ar
     3     3     4   ar
     4     4     5   ar
     5     5    26    1
     6    26    27   am
     7    27    28    2
     8    27    30    1
     9    30    31   ar
    10    31    32   ar
    11    32    33   ar
    12    33    34   ar
    13    34    36    1
    14    36    37    1
    15    36    38    1
    16    36    39    1
    17    34    35   ar
    18     5     6   ar
    19     6     7   ar
    20     7     8    1
    21     8     9   ar
    22     9    10   ar
    23    10    11   ar
    24    11    12   ar
    25    12    13   ar
    26    12    14    1
    27    14    15    1
    28    15    16    1
    29    16    17    1
    30    17    18    1
    31    18    19    1
    32    19    20    1
    33    15    21    1
    34    21    22    1
    35    22    23    2
    36    22    24   am
    37     7     2   ar
    38    13     8   ar
    39    20    15    1
    40    35    30   ar
    41    24    11    1
    42    26    29    1
    43    24    25    1
@<TRIPOS>MOLECULE
*****
 39 43 0 0 0
SMALL
GASTEIGER

@<TRIPOS>ATOM
      1 C          59.4755   87.0218    9.2605 C.3     1  UNL1        0.0310
      2 C          59.5730   88.1005    8.2228 C.ar    1  UNL1       -0.0218
      3 C          58.9892   87.8833    6.8581 C.ar    1  UNL1       -0.0030
      4 C          59.0868   88.9620    5.8203 C.ar    1  UNL1        0.0144
      5 C          59.7680   90.2577    6.1472 C.ar    1  UNL1        0.0505
      6 C          60.3517   90.4749    7.5118 C.ar    1  UNL1        0.0144
      7 C          60.2542   89.3962    8.5495 C.ar    1  UNL1       -0.0026
      8 C          60.8379   89.6134    9.9142 C.ar    1  UNL1        0.0028
      9 C          60.1382   89.0697   11.1244 C.ar    1  UNL1        0.0015
     10 C          60.7218   89.2869   12.4890 C.ar    1  UNL1        0.0178
     11 C          62.0052   90.0477   12.6434 C.ar    1  UNL1        0.0847
     12 C          62.7049   90.5915   11.4332 C.ar    1  UNL1        0.1515
     13 C          62.1213   90.3743   10.0685 C.ar    1  UNL1        0.0382
     14 O          63.9841   91.3720   11.3642 O.3     1  UNL1       -0.4807
     15 C          64.8793   91.8015   12.4885 C.3     1  UNL1        0.1466
     16 C          65.8410   92.2789   13.5361 C.3     1  UNL1        0.0726
     17 C          67.0601   93.0560   13.1366 C.3     1  UNL1        0.1458
     18 O          67.3177   93.3559   11.6896 O.3     1  UNL1       -0.3535
     19 C          66.3561   92.8786   10.6421 C.3     1  UNL1        0.1458
     20 C          65.1369   92.1014   11.0415 C.3     1  UNL1        0.0726
     21 C          64.7166   91.5567   13.9594 C.3     1  UNL1        0.1254
     22 C          63.6184   90.8217   14.6693 C.2     1  UNL1        0.2297
     23 O          63.7434   90.7487   16.1623 O.2     1  UNL1       -0.2746
     24 N          62.4117   90.1502   14.0836 N.am    1  UNL1       -0.2814
     25 H          61.8065   89.7198   14.7299 H       1  UNL1        0.1549
     26 N          59.8655   91.3364    5.1094 N.am    1  UNL1       -0.2804
     27 C          61.0865   91.4361    4.2437 C.2     1  UNL1        0.2496
     28 O          62.2098   90.4572    4.4158 O.2     1  UNL1       -0.2698
     29 H          59.1282   91.9789    4.9965 H       1  UNL1        0.1552
     30 C          61.1840   92.5148    3.2059 C.ar    1  UNL1        0.0567
     31 C          59.9823   93.3501    2.8772 C.ar    1  UNL1        0.0252
     32 C          60.0798   94.4287    1.8394 C.ar    1  UNL1        0.0989
     33 N          61.3790   94.6720    1.1304 N.ar    1  UNL1       -0.2399
     34 C          62.5807   93.8368    1.4590 C.ar    1  UNL1        0.1528
     35 C          62.4833   92.7581    2.4968 C.ar    1  UNL1        0.0276
     36 C          63.8800   94.0800    0.7500 C.3     1  UNL1        0.4348
     37 F          65.1793   94.3234    0.0409 F       1  UNL1       -0.1644
     38 F          63.3379   95.3650    0.1976 F       1  UNL1       -0.1644
     39 F          64.4221   92.7951    1.3023 F       1  UNL1       -0.1644
@<TRIPOS>BOND
     1     1     2    1
     2     2     3   ar
     3     3     4   ar
     4     4     5   ar
     5     5    26    1
     6    26    27   am
     7    27    28    2
     8    27    30    1
     9    30    31   ar
    10    31    32   ar
    11    32    33   ar
    12    33    34   ar
    13    34    36    1
    14    36    37    1
    15    36    38    1
    16    36    39    1
    17    34    35   ar
    18     5     6   ar
    19     6     7   ar
    20     7     8    1
    21     8     9   ar
    22     9    10   ar
    23    10    11   ar
    24    11    12   ar
    25    12    13   ar
    26    12    14    1
    27    14    15    1
    28    15    16    1
    29    16    17    1
    30    17    18    1
    31    18    19    1
    32    19    20    1
    33    15    21    1
    34    21    22    1
    35    22    23    2
    36    22    24   am
    37     7     2   ar
    38    13     8   ar
    39    20    15    1
    40    35    30   ar
    41    24    11    1
    42    26    29    1
    43    24    25    1
@<TRIPOS>MOLECULE
*****
 39 43 0 0 0
SMALL
GASTEIGER

@<TRIPOS>ATOM
      1 C          62.7543   85.7355   12.4258 C.3     1  UNL1        0.0310
      2 C          62.1425   86.3822   11.2185 C.ar    1  UNL1       -0.0218
      3 C          61.3453   85.5596   10.2500 C.ar    1  UNL1       -0.0030
      4 C          60.7336   86.2063    9.0427 C.ar    1  UNL1        0.0144
      5 C          60.9190   87.6755    8.8040 C.ar    1  UNL1        0.0505
      6 C          61.7161   88.4980    9.7724 C.ar    1  UNL1        0.0144
      7 C          62.3279   87.8514   10.9797 C.ar    1  UNL1       -0.0026
      8 C          63.1251   88.6740   11.9482 C.ar    1  UNL1        0.0028
      9 C          63.4091   88.1470   13.3236 C.ar    1  UNL1        0.0015
     10 C          64.2062   88.9695   14.2921 C.ar    1  UNL1        0.0178
     11 C          64.7193   90.3190   13.8852 C.ar    1  UNL1        0.0847
     12 C          64.4353   90.8459   12.5099 C.ar    1  UNL1        0.1515
     13 C          63.6382   90.0234   11.5413 C.ar    1  UNL1        0.0382
     14 O          64.8497   92.1550   11.9058 O.3     1  UNL1       -0.4807
     15 C          65.6504   93.2603   12.5280 C.3     1  UNL1        0.1466
     16 C          66.4408   94.4218   13.0536 C.3     1  UNL1        0.0726
     17 C          66.6904   95.6156   12.1805 C.3     1  UNL1        0.1458
     18 O          66.1496   95.6480   10.7817 O.3     1  UNL1       -0.3535
     19 C          65.3592   94.4865   10.2561 C.3     1  UNL1        0.1458
     20 C          65.1096   93.2927   11.1292 C.3     1  UNL1        0.0726
     21 C          66.2345   93.3297   13.9078 C.3     1  UNL1        0.1254
     22 C          66.1622   92.3108   15.0063 C.2     1  UNL1        0.2297
     23 O          66.8559   92.6806   16.2838 O.2     1  UNL1       -0.2746
     24 N          65.4879   90.9709   14.9962 N.am    1  UNL1       -0.2814
     25 H          65.5591   90.4505   15.8290 H       1  UNL1        0.1549
     26 N          60.3072   88.3222    7.5967 N.am    1  UNL1       -0.2804
     27 C          59.7784   89.7233    7.6832 C.2     1  UNL1        0.2496
     28 O          59.8615   90.4776    8.9770 O.2     1  UNL1       -0.2698
     29 H          60.2527   87.8271    6.7475 H       1  UNL1        0.1552
     30 C          59.1667   90.3700    6.4760 C.ar    1  UNL1        0.0567
     31 C          57.6794   90.3424    6.2830 C.ar    1  UNL1        0.0252
     32 C          57.0677   90.9891    5.0757 C.ar    1  UNL1        0.0989
     33 N          57.9431   91.6633    4.0614 N.ar    1  UNL1       -0.2399
     34 C          59.4304   91.6909    4.2543 C.ar    1  UNL1        0.1528
     35 C          60.0422   91.0442    5.4616 C.ar    1  UNL1        0.0276
     36 C          60.3060   92.3651    3.2400 C.3     1  UNL1        0.4348
     37 F          61.1814   93.0393    2.2256 F       1  UNL1       -0.1644
     38 F          59.0882   92.8228    2.4931 F       1  UNL1       -0.1644
     39 F          61.5236   91.9073    3.9867 F       1  UNL1       -0.1644
@<TRIPOS>BOND
     1     1     2    1
     2     2     3   ar
     3     3     4   ar
     4     4     5   ar
     5     5    26    1
     6    26    27   am
     7    27    28    2
     8    27    30    1
     9    30    31   ar
    10    31    32   ar
    11    32    33   ar
    12    33    34   ar
    13    34    36    1
    14    36    37    1
    15    36    38    1
    16    36    39    1
    17    34    35   ar
    18     5     6   ar
    19     6     7   ar
    20     7     8    1
    21     8     9   ar
    22     9    10   ar
    23    10    11   ar
    24    11    12   ar
    25    12    13   ar
    26    12    14    1
    27    14    15    1
    28    15    16    1
    29    16    17    1
    30    17    18    1
    31    18    19    1
    32    19    20    1
    33    15    21    1
    34    21    22    1
    35    22    23    2
    36    22    24   am
    37     7     2   ar
    38    13     8   ar
    39    20    15    1
    40    35    30   ar
    41    24    11    1
    42    26    29    1
    43    24    25    1
@<TRIPOS>MOLECULE
*****
 39 43 0 0 0
SMALL
GASTEIGER

@<TRIPOS>ATOM
      1 C          59.3830   87.3379    8.8813 C.3     1  UNL1        0.0310
      2 C          60.3770   88.3626    9.3416 C.ar    1  UNL1       -0.0218
      3 C          59.9871   89.8097    9.4066 C.ar    1  UNL1       -0.0030
      4 C          60.9812   90.8343    9.8669 C.ar    1  UNL1        0.0144
      5 C          62.3651   90.4119   10.2622 C.ar    1  UNL1        0.0505
      6 C          62.7551   88.9650   10.1972 C.ar    1  UNL1        0.0144
      7 C          61.7610   87.9404    9.7369 C.ar    1  UNL1       -0.0026
      8 C          62.1510   86.4933    9.6718 C.ar    1  UNL1        0.0028
      9 C          62.5516   85.8827    8.3617 C.ar    1  UNL1        0.0015
     10 C          62.9415   84.4358    8.2966 C.ar    1  UNL1        0.0178
     11 C          62.9308   83.5994    9.5417 C.ar    1  UNL1        0.0847
     12 C          62.5302   84.2100   10.8519 C.ar    1  UNL1        0.1515
     13 C          62.1402   85.6570   10.9170 C.ar    1  UNL1        0.0382
     14 O          62.4516   83.5601   12.2015 O.3     1  UNL1       -0.4807
     15 C          62.7542   82.1390   12.5743 C.3     1  UNL1        0.1466
     16 C          63.0304   80.7445   13.0527 C.3     1  UNL1        0.0726
     17 C          62.8537   80.4000   14.5018 C.3     1  UNL1        0.1458
     18 O          62.4007   81.4500   15.4725 O.3     1  UNL1       -0.3535
     19 C          62.1245   82.8445   14.9941 C.3     1  UNL1        0.1458
     20 C          62.3012   83.1890   13.5450 C.3     1  UNL1        0.0726
     21 C          63.2102   81.0169   11.6894 C.3     1  UNL1        0.1254
     22 C          63.4761   81.0387   10.2133 C.2     1  UNL1        0.2297
     23 O          63.9259   79.7394    9.6138 O.2     1  UNL1       -0.2746
     24 N          63.3518   82.1881    9.2575 N.am    1  UNL1       -0.2814
     25 H          63.5762   81.9899    8.3196 H       1  UNL1        0.1549
     26 N          63.3592   91.4366   10.7225 N.am    1  UNL1       -0.2804
     27 C          64.0439   91.2752   12.0474 C.2     1  UNL1        0.2496
     28 O          63.7345   90.0891   12.9119 O.2     1  UNL1       -0.2698
     29 H          63.5623   92.2151   10.1550 H       1  UNL1        0.1552
     30 C          65.0379   92.2999   12.5077 C.ar    1  UNL1        0.0567
     31 C          65.6904   92.1613   13.8511 C.ar    1  UNL1        0.0252
     32 C          66.6845   93.1860   14.3114 C.ar    1  UNL1        0.0989
     33 N          67.0260   94.3492   13.4282 N.ar    1  UNL1       -0.2399
     34 C          66.3736   94.4879   12.0848 C.ar    1  UNL1        0.1528
     35 C          65.3795   93.4632   11.6244 C.ar    1  UNL1        0.0276
     36 C          66.7151   95.6512   11.2015 C.3     1  UNL1        0.4348
     37 F          67.0567   96.8144   10.3182 F       1  UNL1       -0.1644
     38 F          67.4270   94.7265   10.2590 F       1  UNL1       -0.1644
     39 F          66.0032   96.5758   12.1439 F       1  UNL1       -0.1644
@<TRIPOS>BOND
     1     1     2    1
     2     2     3   ar
     3     3     4   ar
     4     4     5   ar
     5     5    26    1
     6    26    27   am
     7    27    28    2
     8    27    30    1
     9    30    31   ar
    10    31    32   ar
    11    32    33   ar
    12    33    34   ar
    13    34    36    1
    14    36    37    1
    15    36    38    1
    16    36    39    1
    17    34    35   ar
    18     5     6   ar
    19     6     7   ar
    20     7     8    1
    21     8     9   ar
    22     9    10   ar
    23    10    11   ar
    24    11    12   ar
    25    12    13   ar
    26    12    14    1
    27    14    15    1
    28    15    16    1
    29    16    17    1
    30    17    18    1
    31    18    19    1
    32    19    20    1
    33    15    21    1
    34    21    22    1
    35    22    23    2
    36    22    24   am
    37     7     2   ar
    38    13     8   ar
    39    20    15    1
    40    35    30   ar
    41    24    11    1
    42    26    29    1
    43    24    25    1
