@<TRIPOS>MOLECULE
*****
 31 36 0 0 0
SMALL
GASTEIGER

@<TRIPOS>ATOM
      1 C          61.5659   87.5699    9.8306 C.3     1  UNL1        0.0312
      2 C          62.3614   87.3809   11.0882 C.ar    1  UNL1       -0.0177
      3 C          62.8642   88.5748   11.8442 C.ar    1  UNL1       -0.0043
      4 C          63.6597   88.3857   13.1018 C.ar    1  UNL1       -0.0005
      5 C          63.9524   87.0027   13.6033 C.ar    1  UNL1       -0.0027
      6 C          63.4496   85.8088   12.8472 C.ar    1  UNL1        0.0017
      7 C          62.6541   85.9979   11.5897 C.ar    1  UNL1        0.0473
      8 C          62.2930   84.6412   11.0613 C.2     1  UNL1        0.2486
      9 O          61.4989   84.3613    9.8198 O.2     1  UNL1       -0.2699
     10 N          62.8652   83.6137   11.9923 N.am    1  UNL1       -0.2736
     11 C          63.5801   84.3353   13.0960 C.3     1  UNL1        0.1205
     12 C          64.1624   89.5798   13.8578 C.2     1  UNL1        0.0292
     13 C          63.8461   89.7317   15.3162 C.2     1  UNL1        0.2320
     14 N          64.3489   90.9257   16.0723 N.2     1  UNL1       -0.0311
     15 C          65.1680   91.9678   15.3700 C.2     1  UNL1        0.3720
     16 N          65.7960   93.2425   15.8501 N.2     1  UNL1       -0.0308
     17 C          66.5004   93.8784   14.6886 C.2     1  UNL1        0.2358
     18 C          66.3077   92.9967   13.4905 C.2     1  UNL1        0.0507
     19 C          65.4843   91.8159   13.9116 C.2     1  UNL1        0.0743
     20 C          64.9815   90.6218   13.1555 C.3     1  UNL1        0.0645
     21 C          66.8444   93.2512   12.1131 C.ar    1  UNL1        0.0067
     22 C          66.5047   94.5260   11.3994 C.ar    1  UNL1        0.0208
     23 C          67.0414   94.7805   10.0220 C.ar    1  UNL1        0.0989
     24 N          67.9179   93.7600    9.3583 N.ar    1  UNL1       -0.2423
     25 C          68.2576   92.4852   10.0719 C.ar    1  UNL1        0.0989
     26 C          67.7208   92.2307   11.4493 C.ar    1  UNL1        0.0208
     27 C          62.7439   82.1259   11.8453 C.3     1  UNL1        0.0759
     28 C          63.2140   81.4556   10.5885 C.3     1  UNL1        0.0215
     29 C          62.1526   81.3083   12.9552 C.3     1  UNL1        0.0182
     30 C          62.0827   80.0247   13.7280 C.3     1  UNL1        0.0017
     31 C          61.1981   81.1760   14.1047 C.3     1  UNL1        0.0017
@<TRIPOS>BOND
     1     1     2    1
     2     2     3   ar
     3     3     4   ar
     4     4    12    1
     5    12    13    2
     6    13    14    1
     7    14    15    2
     8    15    16    1
     9    16    17    2
    10    17    18    1
    11    18    21    1
    12    21    22   ar
    13    22    23   ar
    14    23    24   ar
    15    24    25   ar
    16    25    26   ar
    17    18    19    2
    18    19    20    1
    19     4     5   ar
    20     5     6   ar
    21     6     7   ar
    22     7     8    1
    23     8     9    2
    24     8    10   am
    25    10    27    1
    26    27    28    1
    27    27    29    1
    28    29    30    1
    29    30    31    1
    30    10    11    1
    31     7     2   ar
    32    31    29    1
    33    20    12    1
    34    11     6    1
    35    19    15    1
    36    26    21   ar
@<TRIPOS>MOLECULE
*****
 31 36 0 0 0
SMALL
GASTEIGER

@<TRIPOS>ATOM
      1 C          65.0769   93.0797   10.1306 C.3     1  UNL1        0.0312
      2 C          64.3688   92.0049   10.9010 C.ar    1  UNL1       -0.0177
      3 C          63.4241   91.0762   10.1974 C.ar    1  UNL1       -0.0043
      4 C          62.7161   90.0014   10.9679 C.ar    1  UNL1       -0.0005
      5 C          62.9528   89.8553   12.4418 C.ar    1  UNL1       -0.0027
      6 C          63.8975   90.7840   13.1454 C.ar    1  UNL1        0.0017
      7 C          64.6055   91.8588   12.3749 C.ar    1  UNL1        0.0473
      8 C          65.4730   92.6206   13.3326 C.2     1  UNL1        0.2486
      9 O          66.3571   93.7825   12.9883 O.2     1  UNL1       -0.2699
     10 N          65.3011   92.0168   14.6948 N.am    1  UNL1       -0.2736
     11 C          64.3274   90.8817   14.5791 C.3     1  UNL1        0.1205
     12 C          61.7713   89.0727   10.2642 C.2     1  UNL1        0.0292
     13 C          61.5042   87.7077   10.8258 C.2     1  UNL1        0.2320
     14 N          60.5595   86.7790   10.1222 N.2     1  UNL1       -0.0311
     15 C          59.8819   87.2153    8.8571 C.2     1  UNL1        0.3720
     16 N          58.9086   86.5231    7.9497 N.2     1  UNL1       -0.0308
     17 C          58.5742   87.4603    6.8272 C.2     1  UNL1        0.2358
     18 C          59.3409   88.7317    7.0411 C.2     1  UNL1        0.0507
     19 C          60.1491   88.5803    8.2955 C.2     1  UNL1        0.0743
     20 C          61.0938   89.5090    8.9991 C.3     1  UNL1        0.0645
     21 C          59.3055   89.9421    6.1557 C.ar    1  UNL1        0.0067
     22 C          60.5770   90.4799    5.5693 C.ar    1  UNL1        0.0208
     23 C          60.5415   91.6902    4.6839 C.ar    1  UNL1        0.0989
     24 N          59.2345   92.3628    4.3850 N.ar    1  UNL1       -0.2423
     25 C          57.9630   91.8249    4.9714 C.ar    1  UNL1        0.0989
     26 C          57.9985   90.6146    5.8568 C.ar    1  UNL1        0.0208
     27 C          65.9832   92.4686   15.9520 C.3     1  UNL1        0.0759
     28 C          65.1962   92.6178   17.2202 C.3     1  UNL1        0.0215
     29 C          67.4523   92.7712   15.9411 C.3     1  UNL1        0.0182
     30 C          68.8731   92.3187   16.1040 C.3     1  UNL1        0.0017
     31 C          68.5760   93.7480   15.7592 C.3     1  UNL1        0.0017
@<TRIPOS>BOND
     1     1     2    1
     2     2     3   ar
     3     3     4   ar
     4     4    12    1
     5    12    13    2
     6    13    14    1
     7    14    15    2
     8    15    16    1
     9    16    17    2
    10    17    18    1
    11    18    21    1
    12    21    22   ar
    13    22    23   ar
    14    23    24   ar
    15    24    25   ar
    16    25    26   ar
    17    18    19    2
    18    19    20    1
    19     4     5   ar
    20     5     6   ar
    21     6     7   ar
    22     7     8    1
    23     8     9    2
    24     8    10   am
    25    10    27    1
    26    27    28    1
    27    27    29    1
    28    29    30    1
    29    30    31    1
    30    10    11    1
    31     7     2   ar
    32    31    29    1
    33    20    12    1
    34    11     6    1
    35    19    15    1
    36    26    21   ar
@<TRIPOS>MOLECULE
*****
 31 36 0 0 0
SMALL
GASTEIGER

@<TRIPOS>ATOM
      1 C          65.6029   93.7086   10.3138 C.3     1  UNL1        0.0312
      2 C          64.8897   92.5805   10.9984 C.ar    1  UNL1       -0.0177
      3 C          63.9509   91.7056   10.2218 C.ar    1  UNL1       -0.0043
      4 C          63.2377   90.5774   10.9064 C.ar    1  UNL1       -0.0005
      5 C          63.4632   90.3243   12.3675 C.ar    1  UNL1       -0.0027
      6 C          64.4020   91.1992   13.1441 C.ar    1  UNL1        0.0017
      7 C          65.1152   92.3274   12.4595 C.ar    1  UNL1        0.0473
      8 C          65.9750   93.0174   13.4767 C.2     1  UNL1        0.2486
      9 O          66.8611   94.2012   13.2248 O.2     1  UNL1       -0.2699
     10 N          65.7932   92.3158   14.7899 N.am    1  UNL1       -0.2736
     11 C          64.8210   91.1921   14.5844 C.3     1  UNL1        0.1205
     12 C          62.2988   89.7025   10.1298 C.2     1  UNL1        0.0292
     13 C          61.2087   90.3191    9.3043 C.2     1  UNL1        0.2320
     14 N          60.2699   89.4442    8.5277 N.2     1  UNL1       -0.0311
     15 C          60.4212   87.9526    8.5765 C.2     1  UNL1        0.3720
     16 N          59.6519   86.8438    7.9219 N.2     1  UNL1       -0.0308
     17 C          60.2666   85.5418    8.3427 C.2     1  UNL1        0.2358
     18 C          61.4158   85.8461    9.2574 C.2     1  UNL1        0.0507
     19 C          61.5113   87.3360    9.4020 C.2     1  UNL1        0.0743
     20 C          62.4502   88.2110   10.1786 C.3     1  UNL1        0.0645
     21 C          62.3121   84.8374    9.9126 C.ar    1  UNL1        0.0067
     22 C          62.1921   84.5709   11.3838 C.ar    1  UNL1        0.0208
     23 C          63.0884   83.5622   12.0389 C.ar    1  UNL1        0.0989
     24 N          64.1048   82.8199   11.2227 N.ar    1  UNL1       -0.2423
     25 C          64.2248   83.0864    9.7515 C.ar    1  UNL1        0.0989
     26 C          63.3284   84.0951    9.0964 C.ar    1  UNL1        0.0208
     27 C          66.4655   92.6748   16.0819 C.3     1  UNL1        0.0759
     28 C          65.6869   92.6533   17.3638 C.3     1  UNL1        0.0215
     29 C          67.9163   93.0552   16.0920 C.3     1  UNL1        0.0182
     30 C          69.3631   92.6594   16.0951 C.3     1  UNL1        0.0017
     31 C          68.9826   94.1102   16.1063 C.3     1  UNL1        0.0017
@<TRIPOS>BOND
     1     1     2    1
     2     2     3   ar
     3     3     4   ar
     4     4    12    1
     5    12    13    2
     6    13    14    1
     7    14    15    2
     8    15    16    1
     9    16    17    2
    10    17    18    1
    11    18    21    1
    12    21    22   ar
    13    22    23   ar
    14    23    24   ar
    15    24    25   ar
    16    25    26   ar
    17    18    19    2
    18    19    20    1
    19     4     5   ar
    20     5     6   ar
    21     6     7   ar
    22     7     8    1
    23     8     9    2
    24     8    10   am
    25    10    27    1
    26    27    28    1
    27    27    29    1
    28    29    30    1
    29    30    31    1
    30    10    11    1
    31     7     2   ar
    32    31    29    1
    33    20    12    1
    34    11     6    1
    35    19    15    1
    36    26    21   ar
@<TRIPOS>MOLECULE
*****
 31 36 0 0 0
SMALL
GASTEIGER

@<TRIPOS>ATOM
      1 C          61.4646   88.0949   10.1403 C.3     1  UNL1        0.0312
      2 C          62.3603   88.0289   11.3417 C.ar    1  UNL1       -0.0177
      3 C          62.9801   89.2822   11.8848 C.ar    1  UNL1       -0.0043
      4 C          63.8758   89.2163   13.0862 C.ar    1  UNL1       -0.0005
      5 C          64.1517   87.8971   13.7446 C.ar    1  UNL1       -0.0027
      6 C          63.5318   86.6437   13.2015 C.ar    1  UNL1        0.0017
      7 C          62.6361   86.7097   12.0001 C.ar    1  UNL1        0.0473
      8 C          62.1705   85.3174   11.6921 C.2     1  UNL1        0.2486
      9 O          61.2573   84.9212   10.5700 O.2     1  UNL1       -0.2699
     10 N          62.7784   84.3910   12.7032 N.am    1  UNL1       -0.2736
     11 C          63.6197   85.2108   13.6360 C.3     1  UNL1        0.1205
     12 C          64.4956   90.4697   13.6293 C.2     1  UNL1        0.0292
     13 C          64.5169   90.7157   15.1088 C.2     1  UNL1        0.2320
     14 N          65.1367   91.9690   15.6519 N.2     1  UNL1       -0.0311
     15 C          65.7353   92.9764   14.7155 C.2     1  UNL1        0.3720
     16 N          66.4108   94.2937   14.9567 N.2     1  UNL1       -0.0308
     17 C          66.8071   94.8619   13.6262 C.2     1  UNL1        0.2358
     18 C          66.3764   93.8957   12.5628 C.2     1  UNL1        0.0507
     19 C          65.7140   92.7304   13.2359 C.2     1  UNL1        0.0743
     20 C          65.0942   91.4770   12.6929 C.3     1  UNL1        0.0645
     21 C          66.5736   94.0651   11.0855 C.ar    1  UNL1        0.0067
     22 C          67.4312   93.0958   10.3271 C.ar    1  UNL1        0.0208
     23 C          67.6283   93.2654    8.8498 C.ar    1  UNL1        0.0989
     24 N          66.9679   94.4042    8.1308 N.ar    1  UNL1       -0.2423
     25 C          66.1104   95.3735    8.8892 C.ar    1  UNL1        0.0989
     26 C          65.9132   95.2040   10.3665 C.ar    1  UNL1        0.0208
     27 C          62.5798   82.9057   12.7697 C.3     1  UNL1        0.0759
     28 C          62.0766   82.2722   14.0328 C.3     1  UNL1        0.0215
     29 C          62.8843   82.0540   11.5732 C.3     1  UNL1        0.0182
     30 C          62.8202   80.7302   10.8707 C.3     1  UNL1        0.0017
     31 C          63.4760   81.9025   10.2031 C.3     1  UNL1        0.0017
@<TRIPOS>BOND
     1     1     2    1
     2     2     3   ar
     3     3     4   ar
     4     4    12    1
     5    12    13    2
     6    13    14    1
     7    14    15    2
     8    15    16    1
     9    16    17    2
    10    17    18    1
    11    18    21    1
    12    21    22   ar
    13    22    23   ar
    14    23    24   ar
    15    24    25   ar
    16    25    26   ar
    17    18    19    2
    18    19    20    1
    19     4     5   ar
    20     5     6   ar
    21     6     7   ar
    22     7     8    1
    23     8     9    2
    24     8    10   am
    25    10    27    1
    26    27    28    1
    27    27    29    1
    28    29    30    1
    29    30    31    1
    30    10    11    1
    31     7     2   ar
    32    31    29    1
    33    20    12    1
    34    11     6    1
    35    19    15    1
    36    26    21   ar
@<TRIPOS>MOLECULE
*****
 31 36 0 0 0
SMALL
GASTEIGER

@<TRIPOS>ATOM
      1 C          62.6058   90.5431    9.9849 C.3     1  UNL1        0.0312
      2 C          63.3548   90.4358   11.2801 C.ar    1  UNL1       -0.0177
      3 C          63.1360   89.2538   12.1773 C.ar    1  UNL1       -0.0043
      4 C          63.8850   89.1464   13.4724 C.ar    1  UNL1       -0.0005
      5 C          64.8528   90.2210   13.8705 C.ar    1  UNL1       -0.0027
      6 C          65.0715   91.4030   12.9733 C.ar    1  UNL1        0.0017
      7 C          64.3225   91.5104   11.6781 C.ar    1  UNL1        0.0473
      8 C          64.7427   92.7827   11.0038 C.2     1  UNL1        0.2486
      9 O          64.2420   93.2875    9.6830 O.2     1  UNL1       -0.2699
     10 N          65.7513   93.4617   11.8822 N.am    1  UNL1       -0.2736
     11 C          65.9546   92.6090   13.0994 C.3     1  UNL1        0.1205
     12 C          63.6661   87.9643   14.3696 C.2     1  UNL1        0.0292
     13 C          63.4745   88.1667   15.8435 C.2     1  UNL1        0.2320
     14 N          63.2556   86.9847   16.7407 N.2     1  UNL1       -0.0311
     15 C          63.2284   85.6002   16.1640 C.2     1  UNL1        0.3720
     16 N          63.0342   84.2536   16.7953 N.2     1  UNL1       -0.0308
     17 C          63.1057   83.2189   15.7117 C.2     1  UNL1        0.2358
     18 C          63.3443   83.9261   14.4106 C.2     1  UNL1        0.0507
     19 C          63.4201   85.3978   14.6901 C.2     1  UNL1        0.0743
     20 C          63.6389   86.5799   13.7929 C.3     1  UNL1        0.0645
     21 C          63.4826   83.2757   13.0660 C.ar    1  UNL1        0.0067
     22 C          62.7491   82.0011   12.7703 C.ar    1  UNL1        0.0208
     23 C          62.8875   81.3507   11.4258 C.ar    1  UNL1        0.0989
     24 N          63.7595   81.9749   10.3769 N.ar    1  UNL1       -0.2423
     25 C          64.4931   83.2494   10.6726 C.ar    1  UNL1        0.0989
     26 C          64.3546   83.8998   12.0172 C.ar    1  UNL1        0.0208
     27 C          66.4364   94.7647   11.5940 C.3     1  UNL1        0.0759
     28 C          66.4703   95.8412   12.6380 C.3     1  UNL1        0.0215
     29 C          67.0876   94.9910   10.2619 C.3     1  UNL1        0.0182
     30 C          67.4425   95.9070    9.1284 C.3     1  UNL1        0.0017
     31 C          67.8607   94.4671    9.0881 C.3     1  UNL1        0.0017
@<TRIPOS>BOND
     1     1     2    1
     2     2     3   ar
     3     3     4   ar
     4     4    12    1
     5    12    13    2
     6    13    14    1
     7    14    15    2
     8    15    16    1
     9    16    17    2
    10    17    18    1
    11    18    21    1
    12    21    22   ar
    13    22    23   ar
    14    23    24   ar
    15    24    25   ar
    16    25    26   ar
    17    18    19    2
    18    19    20    1
    19     4     5   ar
    20     5     6   ar
    21     6     7   ar
    22     7     8    1
    23     8     9    2
    24     8    10   am
    25    10    27    1
    26    27    28    1
    27    27    29    1
    28    29    30    1
    29    30    31    1
    30    10    11    1
    31     7     2   ar
    32    31    29    1
    33    20    12    1
    34    11     6    1
    35    19    15    1
    36    26    21   ar
@<TRIPOS>MOLECULE
*****
 31 36 0 0 0
SMALL
GASTEIGER

@<TRIPOS>ATOM
      1 C          63.9186   85.8541   16.3965 C.3     1  UNL1        0.0312
      2 C          63.6409   86.0956   14.9424 C.ar    1  UNL1       -0.0177
      3 C          63.8192   87.4674   14.3625 C.ar    1  UNL1       -0.0043
      4 C          63.5415   87.7089   12.9083 C.ar    1  UNL1       -0.0005
      5 C          63.0855   86.5785   12.0341 C.ar    1  UNL1       -0.0027
      6 C          62.9072   85.2067   12.6140 C.ar    1  UNL1        0.0017
      7 C          63.1849   84.9653   14.0681 C.ar    1  UNL1        0.0473
      8 C          62.9224   83.5167   14.3558 C.2     1  UNL1        0.2486
      9 O          63.0734   82.8406   15.6863 O.2     1  UNL1       -0.2699
     10 N          62.4825   82.8629   13.0795 N.am    1  UNL1       -0.2736
     11 C          62.4731   83.9074   12.0030 C.3     1  UNL1        0.1205
     12 C          63.7198   89.0808   12.3284 C.2     1  UNL1        0.0292
     13 C          62.9140   89.5011   11.1351 C.2     1  UNL1        0.2320
     14 N          63.0923   90.8729   10.5552 N.2     1  UNL1       -0.0311
     15 C          64.0764   91.8245   11.1687 C.2     1  UNL1        0.3720
     16 N          64.4656   93.2300   10.8184 N.2     1  UNL1       -0.0308
     17 C          65.5120   93.6784   11.7951 C.2     1  UNL1        0.2358
     18 C          65.7694   92.5498   12.7491 C.2     1  UNL1        0.0507
     19 C          64.8822   91.4041   12.3620 C.2     1  UNL1        0.0743
     20 C          64.7039   90.0322   12.9419 C.3     1  UNL1        0.0645
     21 C          66.7432   92.5646   13.8900 C.ar    1  UNL1        0.0067
     22 C          66.2576   92.8126   15.2874 C.ar    1  UNL1        0.0208
     23 C          67.2314   92.8274   16.4283 C.ar    1  UNL1        0.0989
     24 N          68.6908   92.5941   16.1717 N.ar    1  UNL1       -0.2423
     25 C          69.1763   92.3461   14.7743 C.ar    1  UNL1        0.0989
     26 C          68.2025   92.3313   13.6335 C.ar    1  UNL1        0.0208
     27 C          62.1163   81.4182   12.9095 C.3     1  UNL1        0.0759
     28 C          61.2796   80.7296   13.9466 C.3     1  UNL1        0.0215
     29 C          62.5868   80.6622   11.7025 C.3     1  UNL1        0.0182
     30 C          62.8158   79.3609   10.9925 C.3     1  UNL1        0.0017
     31 C          63.1728   80.6541   10.3217 C.3     1  UNL1        0.0017
@<TRIPOS>BOND
     1     1     2    1
     2     2     3   ar
     3     3     4   ar
     4     4    12    1
     5    12    13    2
     6    13    14    1
     7    14    15    2
     8    15    16    1
     9    16    17    2
    10    17    18    1
    11    18    21    1
    12    21    22   ar
    13    22    23   ar
    14    23    24   ar
    15    24    25   ar
    16    25    26   ar
    17    18    19    2
    18    19    20    1
    19     4     5   ar
    20     5     6   ar
    21     6     7   ar
    22     7     8    1
    23     8     9    2
    24     8    10   am
    25    10    27    1
    26    27    28    1
    27    27    29    1
    28    29    30    1
    29    30    31    1
    30    10    11    1
    31     7     2   ar
    32    31    29    1
    33    20    12    1
    34    11     6    1
    35    19    15    1
    36    26    21   ar
@<TRIPOS>MOLECULE
*****
 31 36 0 0 0
SMALL
GASTEIGER

@<TRIPOS>ATOM
      1 C          73.3442   73.0636   11.1459 C.3     1  UNL1        0.0312
      2 C          72.9011   74.1243   12.1095 C.ar    1  UNL1       -0.0177
      3 C          72.9037   75.5650   11.6924 C.ar    1  UNL1       -0.0043
      4 C          72.4606   76.6257   12.6560 C.ar    1  UNL1       -0.0005
      5 C          72.0148   76.2456   14.0368 C.ar    1  UNL1       -0.0027
      6 C          72.0122   74.8048   14.4540 C.ar    1  UNL1        0.0017
      7 C          72.4553   73.7441   13.4903 C.ar    1  UNL1        0.0473
      8 C          72.3460   72.4165   14.1799 C.2     1  UNL1        0.2486
      9 O          72.6875   71.0829   13.5841 O.2     1  UNL1       -0.2699
     10 N          71.8354   72.6566   15.5697 N.am    1  UNL1       -0.2736
     11 C          71.6290   74.1326   15.7391 C.3     1  UNL1        0.1205
     12 C          72.4632   78.0666   12.2388 C.2     1  UNL1        0.0292
     13 C          72.4531   79.1483   13.2779 C.2     1  UNL1        0.2320
     14 N          72.4557   80.5891   12.8608 N.2     1  UNL1       -0.0311
     15 C          72.4685   80.9482   11.4044 C.2     1  UNL1        0.3720
     16 N          72.4739   82.2707   10.6968 N.2     1  UNL1       -0.0308
     17 C          72.4874   82.0064    9.2203 C.2     1  UNL1        0.2358
     18 C          72.4904   80.5205    9.0155 C.2     1  UNL1        0.0507
     19 C          72.4787   79.8665   10.3653 C.2     1  UNL1        0.0743
     20 C          72.4761   78.4256   10.7825 C.3     1  UNL1        0.0645
     21 C          72.5028   79.8129    7.6929 C.ar    1  UNL1        0.0067
     22 C          73.6193   78.8689    7.3577 C.ar    1  UNL1        0.0208
     23 C          73.6317   78.1614    6.0351 C.ar    1  UNL1        0.0989
     24 N          72.5275   78.3978    5.0477 N.ar    1  UNL1       -0.2423
     25 C          71.4111   79.3418    5.3829 C.ar    1  UNL1        0.0989
     26 C          71.3987   80.0493    6.7055 C.ar    1  UNL1        0.0208
     27 C          71.5765   71.6052   16.6078 C.3     1  UNL1        0.0759
     28 C          71.4139   70.1713   16.1987 C.3     1  UNL1        0.0215
     29 C          71.4802   71.9878   18.0549 C.3     1  UNL1        0.0182
     30 C          70.6908   72.0671   19.3279 C.3     1  UNL1        0.0017
     31 C          72.1029   72.5712   19.2886 C.3     1  UNL1        0.0017
@<TRIPOS>BOND
     1     1     2    1
     2     2     3   ar
     3     3     4   ar
     4     4    12    1
     5    12    13    2
     6    13    14    1
     7    14    15    2
     8    15    16    1
     9    16    17    2
    10    17    18    1
    11    18    21    1
    12    21    22   ar
    13    22    23   ar
    14    23    24   ar
    15    24    25   ar
    16    25    26   ar
    17    18    19    2
    18    19    20    1
    19     4     5   ar
    20     5     6   ar
    21     6     7   ar
    22     7     8    1
    23     8     9    2
    24     8    10   am
    25    10    27    1
    26    27    28    1
    27    27    29    1
    28    29    30    1
    29    30    31    1
    30    10    11    1
    31     7     2   ar
    32    31    29    1
    33    20    12    1
    34    11     6    1
    35    19    15    1
    36    26    21   ar
@<TRIPOS>MOLECULE
*****
 31 36 0 0 0
SMALL
GASTEIGER

@<TRIPOS>ATOM
      1 C          62.0779   87.5928    9.9169 C.3     1  UNL1        0.0312
      2 C          62.6060   87.3161   11.2934 C.ar    1  UNL1       -0.0177
      3 C          62.8698   88.4513   12.2376 C.ar    1  UNL1       -0.0043
      4 C          63.3980   88.1747   13.6141 C.ar    1  UNL1       -0.0005
      5 C          63.6622   86.7628   14.0462 C.ar    1  UNL1       -0.0027
      6 C          63.3984   85.6276   13.1020 C.ar    1  UNL1        0.0017
      7 C          62.8703   85.9043   11.7255 C.ar    1  UNL1        0.0473
      8 C          62.7074   84.5912   11.0190 C.2     1  UNL1        0.2486
      9 O          62.2052   84.3999    9.6186 O.2     1  UNL1       -0.2699
     10 N          63.1348   83.5030   11.9587 N.am    1  UNL1       -0.2736
     11 C          63.5619   84.1436   13.2461 C.3     1  UNL1        0.1205
     12 C          63.6618   89.3100   14.5584 C.2     1  UNL1        0.0292
     13 C          62.6428   89.6735   15.5973 C.2     1  UNL1        0.2320
     14 N          62.9065   90.8087   16.5416 N.2     1  UNL1       -0.0311
     15 C          64.1893   91.5805   16.4469 C.2     1  UNL1        0.3720
     16 N          64.7236   92.7398   17.2344 N.2     1  UNL1       -0.0308
     17 C          66.0728   93.0929   16.6822 C.2     1  UNL1        0.2358
     18 C          66.3724   92.1516   15.5534 C.2     1  UNL1        0.0507
     19 C          65.2083   91.2169   15.4079 C.2     1  UNL1        0.0743
     20 C          64.9445   90.0816   14.4636 C.3     1  UNL1        0.0645
     21 C          67.6175   92.1461   14.7168 C.ar    1  UNL1        0.0067
     22 C          67.5543   91.7184   13.2805 C.ar    1  UNL1        0.0208
     23 C          68.7994   91.7129   12.4441 C.ar    1  UNL1        0.0989
     24 N          70.1078   92.1352   13.0440 N.ar    1  UNL1       -0.2423
     25 C          70.1710   92.5629   14.4803 C.ar    1  UNL1        0.0989
     26 C          68.9258   92.5683   15.3167 C.ar    1  UNL1        0.0208
     27 C          63.1351   82.0324   11.6631 C.3     1  UNL1        0.0759
     28 C          63.7633   81.5214   10.4005 C.3     1  UNL1        0.0215
     29 C          62.5072   81.0729   12.6300 C.3     1  UNL1        0.0182
     30 C          61.5854   80.8074   13.7831 C.3     1  UNL1        0.0017
     31 C          62.3415   79.6763   13.1516 C.3     1  UNL1        0.0017
@<TRIPOS>BOND
     1     1     2    1
     2     2     3   ar
     3     3     4   ar
     4     4    12    1
     5    12    13    2
     6    13    14    1
     7    14    15    2
     8    15    16    1
     9    16    17    2
    10    17    18    1
    11    18    21    1
    12    21    22   ar
    13    22    23   ar
    14    23    24   ar
    15    24    25   ar
    16    25    26   ar
    17    18    19    2
    18    19    20    1
    19     4     5   ar
    20     5     6   ar
    21     6     7   ar
    22     7     8    1
    23     8     9    2
    24     8    10   am
    25    10    27    1
    26    27    28    1
    27    27    29    1
    28    29    30    1
    29    30    31    1
    30    10    11    1
    31     7     2   ar
    32    31    29    1
    33    20    12    1
    34    11     6    1
    35    19    15    1
    36    26    21   ar
