@<TRIPOS>MOLECULE
*****
 25 27 0 0 0
SMALL
GASTEIGER

@<TRIPOS>ATOM
      1 C          62.5657   89.3599   10.9370 C.ar    1  UNL1        0.0070
      2 C          62.9965   88.8684   12.2871 C.ar    1  UNL1       -0.0017
      3 C          63.9436   89.6849   13.1155 C.ar    1  UNL1       -0.0002
      4 C          64.4599   90.9930   12.5937 C.ar    1  UNL1       -0.0000
      5 C          64.0291   91.4846   11.2437 C.ar    1  UNL1       -0.0002
      6 C          63.0820   90.6681   10.4153 C.ar    1  UNL1       -0.0017
      7 C          65.4070   91.8096   13.4222 C.ar    1  UNL1        0.0001
      8 C          65.9273   91.2670   14.7202 C.ar    1  UNL1        0.0023
      9 C          66.8745   92.0836   15.5486 C.ar    1  UNL1        0.0296
     10 C          67.3013   93.4427   15.0789 C.ar    1  UNL1        0.1401
     11 F          68.2484   94.2593   15.9073 F       1  UNL1       -0.2042
     12 C          66.7810   93.9853   13.7808 C.ar    1  UNL1        0.0296
     13 C          65.8339   93.1687   12.9525 C.ar    1  UNL1        0.0023
     14 C          61.6186   88.5434   10.1086 C.3     1  UNL1        0.1410
     15 O          62.7710   88.0289    9.2981 O.3     1  UNL1       -0.3771
     16 H          62.4342   87.5532    8.5227 H       1  UNL1        0.2112
     17 C          60.4661   89.0579   10.9192 C.ar    1  UNL1        0.0825
     18 C          59.9283   90.4580   10.8974 C.ar    1  UNL1        0.1157
     19 N          58.7788   90.5281   11.8587 N.ar    1  UNL1       -0.2228
     20 C          58.6063   89.1712   12.4745 C.ar    1  UNL1        0.1749
     21 N          59.6490   88.2626   11.8939 N.ar    1  UNL1       -0.3361
     22 H          59.7750   87.3113   12.1140 H       1  UNL1        0.1673
     23 C          59.7224   88.4060    8.3378 C.3     1  UNL1        0.0031
     24 C          60.6714   87.7269    9.2803 C.3     1  UNL1        0.0340
     25 C          60.6733   86.2311    9.3943 C.3     1  UNL1        0.0031
@<TRIPOS>BOND
     1    23    24    1
     2    24    25    1
     3    24    14    1
     4    14    15    1
     5    14     1    1
     6     1     2   ar
     7     2     3   ar
     8     3     4   ar
     9     4     7    1
    10     7     8   ar
    11     8     9   ar
    12     9    10   ar
    13    10    11    1
    14    10    12   ar
    15    12    13   ar
    16     4     5   ar
    17     5     6   ar
    18    14    17    1
    19    17    18   ar
    20    18    19   ar
    21    19    20   ar
    22    20    21   ar
    23     6     1   ar
    24    21    17   ar
    25    13     7   ar
    26    15    16    1
    27    21    22    1
@<TRIPOS>MOLECULE
*****
 25 27 0 0 0
SMALL
GASTEIGER

@<TRIPOS>ATOM
      1 C          64.4774   91.2277   12.6115 C.ar    1  UNL1        0.0070
      2 C          64.0307   91.7225   11.2678 C.ar    1  UNL1       -0.0017
      3 C          63.1411   90.8699   10.4125 C.ar    1  UNL1       -0.0002
      4 C          62.6981   89.5226   10.9008 C.ar    1  UNL1       -0.0000
      5 C          63.1448   89.0278   12.2446 C.ar    1  UNL1       -0.0002
      6 C          64.0344   89.8804   13.0999 C.ar    1  UNL1       -0.0017
      7 C          61.8085   88.6700   10.0454 C.ar    1  UNL1        0.0001
      8 C          62.0201   87.1861    9.9891 C.ar    1  UNL1        0.0023
      9 C          61.1304   86.3335    9.1336 C.ar    1  UNL1        0.0296
     10 C          60.0292   86.9649    8.3346 C.ar    1  UNL1        0.1401
     11 F          59.1395   86.1124    7.4792 F       1  UNL1       -0.2042
     12 C          59.8175   88.4489    8.3910 C.ar    1  UNL1        0.0296
     13 C          60.7072   89.3014    9.2464 C.ar    1  UNL1        0.0023
     14 C          65.3670   92.0803   13.4670 C.3     1  UNL1        0.1410
     15 O          64.4914   91.8040   14.6531 O.3     1  UNL1       -0.3771
     16 H          64.7457   92.3869   15.3855 H       1  UNL1        0.2112
     17 C          66.2427   92.3565   12.2809 C.ar    1  UNL1        0.0825
     18 C          67.5824   91.7382   12.0109 C.ar    1  UNL1        0.1157
     19 N          68.1001   92.2991   10.7195 N.ar    1  UNL1       -0.2228
     20 C          67.0803   93.2642   10.1915 C.ar    1  UNL1        0.1749
     21 N          65.9324   93.2997   11.1564 N.ar    1  UNL1       -0.3361
     22 H          65.1183   93.8460   11.0674 H       1  UNL1        0.1673
     23 C          66.7967   92.3934   15.6136 C.3     1  UNL1        0.0031
     24 C          66.2567   92.9328   14.3223 C.3     1  UNL1        0.0340
     25 C          66.6063   94.3249   13.8864 C.3     1  UNL1        0.0031
@<TRIPOS>BOND
     1    23    24    1
     2    24    25    1
     3    24    14    1
     4    14    15    1
     5    14     1    1
     6     1     2   ar
     7     2     3   ar
     8     3     4   ar
     9     4     7    1
    10     7     8   ar
    11     8     9   ar
    12     9    10   ar
    13    10    11    1
    14    10    12   ar
    15    12    13   ar
    16     4     5   ar
    17     5     6   ar
    18    14    17    1
    19    17    18   ar
    20    18    19   ar
    21    19    20   ar
    22    20    21   ar
    23     6     1   ar
    24    21    17   ar
    25    13     7   ar
    26    15    16    1
    27    21    22    1
@<TRIPOS>MOLECULE
*****
 25 27 0 0 0
SMALL
GASTEIGER

@<TRIPOS>ATOM
      1 C          61.8432   89.5893   10.3670 C.ar    1  UNL1        0.0070
      2 C          61.9854   89.1830   11.8039 C.ar    1  UNL1       -0.0017
      3 C          62.9765   89.8822   12.6865 C.ar    1  UNL1       -0.0002
      4 C          63.8254   90.9876   12.1321 C.ar    1  UNL1       -0.0000
      5 C          63.6833   91.3939   10.6952 C.ar    1  UNL1       -0.0002
      6 C          62.6922   90.6948    9.8127 C.ar    1  UNL1       -0.0017
      7 C          64.8165   91.6867   13.0147 C.ar    1  UNL1        0.0001
      8 C          65.0398   91.2073   14.4184 C.ar    1  UNL1        0.0023
      9 C          66.0310   91.9065   15.3010 C.ar    1  UNL1        0.0296
     10 C          66.7988   93.0850   14.7799 C.ar    1  UNL1        0.1401
     11 F          67.7899   93.7841   15.6624 F       1  UNL1       -0.2042
     12 C          66.5754   93.5644   13.3761 C.ar    1  UNL1        0.0296
     13 C          65.5843   92.8653   12.4936 C.ar    1  UNL1        0.0023
     14 C          60.8521   88.8902    9.4844 C.3     1  UNL1        0.1410
     15 O          60.2824   90.2157    9.0741 O.3     1  UNL1       -0.3771
     16 H          59.4593   90.0751    8.5806 H       1  UNL1        0.2112
     17 C          61.4218   87.5647    9.8947 C.ar    1  UNL1        0.0825
     18 C          62.3977   86.7424    9.1064 C.ar    1  UNL1        0.1157
     19 N          62.6947   85.4981    9.8899 N.ar    1  UNL1       -0.2228
     20 C          61.9023   85.5515   11.1625 C.ar    1  UNL1        0.1749
     21 N          61.1156   86.8286   11.1654 N.ar    1  UNL1       -0.3361
     22 H          60.5054   87.1308   11.8765 H       1  UNL1        0.1673
     23 C          59.4710   88.7961    7.2859 C.3     1  UNL1        0.0031
     24 C          59.8610   88.1911    8.6019 C.3     1  UNL1        0.0340
     25 C          59.2599   86.8869    9.0353 C.3     1  UNL1        0.0031
@<TRIPOS>BOND
     1    23    24    1
     2    24    25    1
     3    24    14    1
     4    14    15    1
     5    14     1    1
     6     1     2   ar
     7     2     3   ar
     8     3     4   ar
     9     4     7    1
    10     7     8   ar
    11     8     9   ar
    12     9    10   ar
    13    10    11    1
    14    10    12   ar
    15    12    13   ar
    16     4     5   ar
    17     5     6   ar
    18    14    17    1
    19    17    18   ar
    20    18    19   ar
    21    19    20   ar
    22    20    21   ar
    23     6     1   ar
    24    21    17   ar
    25    13     7   ar
    26    15    16    1
    27    21    22    1
@<TRIPOS>MOLECULE
*****
 25 27 0 0 0
SMALL
GASTEIGER

@<TRIPOS>ATOM
      1 C          64.4319   90.7687   12.5850 C.ar    1  UNL1        0.0070
      2 C          63.9271   91.4240   11.3338 C.ar    1  UNL1       -0.0017
      3 C          62.9549   90.7019   10.4488 C.ar    1  UNL1       -0.0002
      4 C          62.4875   89.3244   10.8150 C.ar    1  UNL1       -0.0000
      5 C          62.9924   88.6691   12.0662 C.ar    1  UNL1       -0.0002
      6 C          63.9646   89.3912   12.9512 C.ar    1  UNL1       -0.0017
      7 C          61.5153   88.6023    9.9299 C.ar    1  UNL1        0.0001
      8 C          61.4939   87.1026    9.9058 C.ar    1  UNL1        0.0023
      9 C          60.5216   86.3805    9.0207 C.ar    1  UNL1        0.0296
     10 C          59.5708   87.1581    8.1598 C.ar    1  UNL1        0.1401
     11 F          58.5985   86.4360    7.2747 F       1  UNL1       -0.2042
     12 C          59.5922   88.6578    8.1839 C.ar    1  UNL1        0.0296
     13 C          60.5644   89.3798    9.0689 C.ar    1  UNL1        0.0023
     14 C          65.4042   91.4908   13.4701 C.3     1  UNL1        0.1410
     15 O          66.1757   91.9328   12.2620 O.3     1  UNL1       -0.3771
     16 H          67.0170   92.3264   12.5418 H       1  UNL1        0.2112
     17 C          64.6327   91.0488   14.6781 C.ar    1  UNL1        0.0825
     18 C          63.9753   91.9486   15.6822 C.ar    1  UNL1        0.1157
     19 N          63.3194   91.0852   16.7189 N.ar    1  UNL1       -0.2228
     20 C          63.5715   89.6519   16.3554 C.ar    1  UNL1        0.1749
     21 N          64.3831   89.6294   15.0942 N.ar    1  UNL1       -0.3361
     22 H          64.6969   88.8243   14.6223 H       1  UNL1        0.1673
     23 C          67.2759   91.4371   15.2712 C.3     1  UNL1        0.0031
     24 C          66.3764   92.2129   14.3551 C.3     1  UNL1        0.0340
     25 C          66.4492   93.7109   14.3242 C.3     1  UNL1        0.0031
@<TRIPOS>BOND
     1    23    24    1
     2    24    25    1
     3    24    14    1
     4    14    15    1
     5    14     1    1
     6     1     2   ar
     7     2     3   ar
     8     3     4   ar
     9     4     7    1
    10     7     8   ar
    11     8     9   ar
    12     9    10   ar
    13    10    11    1
    14    10    12   ar
    15    12    13   ar
    16     4     5   ar
    17     5     6   ar
    18    14    17    1
    19    17    18   ar
    20    18    19   ar
    21    19    20   ar
    22    20    21   ar
    23     6     1   ar
    24    21    17   ar
    25    13     7   ar
    26    15    16    1
    27    21    22    1
@<TRIPOS>MOLECULE
*****
 25 27 0 0 0
SMALL
GASTEIGER

@<TRIPOS>ATOM
      1 C          64.7984   91.0345   13.4813 C.ar    1  UNL1        0.0070
      2 C          63.9222   91.4977   12.3554 C.ar    1  UNL1       -0.0017
      3 C          64.4561   92.4611   11.3372 C.ar    1  UNL1       -0.0002
      4 C          65.8662   92.9613   11.4450 C.ar    1  UNL1       -0.0000
      5 C          66.7423   92.4981   12.5710 C.ar    1  UNL1       -0.0002
      6 C          66.2084   91.5347   13.5891 C.ar    1  UNL1       -0.0017
      7 C          66.4000   93.9248   10.4268 C.ar    1  UNL1        0.0001
      8 C          65.9393   95.3523   10.4310 C.ar    1  UNL1        0.0023
      9 C          66.4732   96.3158    9.4128 C.ar    1  UNL1        0.0296
     10 C          67.4678   95.8517    8.3903 C.ar    1  UNL1        0.1401
     11 F          68.0017   96.8151    7.3721 F       1  UNL1       -0.2042
     12 C          67.9286   94.4242    8.3862 C.ar    1  UNL1        0.0296
     13 C          67.3947   93.4608    9.4044 C.ar    1  UNL1        0.0023
     14 C          64.2645   90.0710   14.4996 C.3     1  UNL1        0.1410
     15 O          65.2988   90.5355   15.4815 O.3     1  UNL1       -0.3771
     16 H          65.3045   89.9432   16.2496 H       1  UNL1        0.2112
     17 C          63.2301   89.6065   13.5176 C.ar    1  UNL1        0.0825
     18 C          63.4191   88.5465   12.4732 C.ar    1  UNL1        0.1157
     19 N          62.1308   88.4053   11.7177 N.ar    1  UNL1       -0.2228
     20 C          61.1457   89.3780   12.2953 C.ar    1  UNL1        0.1749
     21 N          61.8251   90.1204   13.4076 N.ar    1  UNL1       -0.3361
     22 H          61.4200   90.8217   13.9673 H       1  UNL1        0.1673
     23 C          62.9901   89.6186   16.7179 C.3     1  UNL1        0.0031
     24 C          63.7306   89.1075   15.5177 C.3     1  UNL1        0.0340
     25 C          63.9372   87.6330   15.3357 C.3     1  UNL1        0.0031
@<TRIPOS>BOND
     1    23    24    1
     2    24    25    1
     3    24    14    1
     4    14    15    1
     5    14     1    1
     6     1     2   ar
     7     2     3   ar
     8     3     4   ar
     9     4     7    1
    10     7     8   ar
    11     8     9   ar
    12     9    10   ar
    13    10    11    1
    14    10    12   ar
    15    12    13   ar
    16     4     5   ar
    17     5     6   ar
    18    14    17    1
    19    17    18   ar
    20    18    19   ar
    21    19    20   ar
    22    20    21   ar
    23     6     1   ar
    24    21    17   ar
    25    13     7   ar
    26    15    16    1
    27    21    22    1
