@<TRIPOS>MOLECULE
*****
 16 17 0 0 0
SMALL
GASTEIGER

@<TRIPOS>ATOM
      1 C          63.3463   89.4357   12.4853 C.ar    1  UNL1        0.1342
      2 C          63.3153   90.6815   11.6502 C.ar    1  UNL1        0.0370
      3 C          62.4550   90.4142   10.4509 C.ar    1  UNL1        0.0403
      4 C          61.9543   89.0033   10.5447 C.ar    1  UNL1        0.1464
      5 O          62.5051   88.3986   11.8021 O.2     1  UNL1       -0.4568
      6 C          61.0598   88.3175    9.5549 C.ar    1  UNL1        0.0537
      7 C          60.2067   89.1300    8.6264 C.ar    1  UNL1        0.0062
      8 C          59.3122   88.4442    7.6367 C.ar    1  UNL1        0.0208
      9 C          59.2708   86.9460    7.5755 C.ar    1  UNL1        0.0989
     10 N          60.1239   86.1336    8.5040 N.ar    1  UNL1       -0.2422
     11 C          61.0184   86.8194    9.4937 C.ar    1  UNL1        0.1019
     12 C          64.0882   89.2583   13.7769 C.3     1  UNL1        0.1291
     13 S          64.3372   90.4396   14.6671 S.3     1  UNL1       -0.0690
     14 C          63.1210   89.3027   16.6617 C.3     1  UNL1        0.0845
     15 C          63.6415   90.5400   15.9922 C.2     1  UNL1        0.1996
     16 O          63.4663   91.8777   16.6478 O.2     1  UNL1       -0.2845
@<TRIPOS>BOND
     1    14    15    1
     2    15    16    2
     3    15    13    1
     4    13    12    1
     5    12     1    1
     6     1     2   ar
     7     2     3   ar
     8     3     4   ar
     9     4     6    1
    10     6     7   ar
    11     7     8   ar
    12     8     9   ar
    13     9    10   ar
    14    10    11   ar
    15     4     5   ar
    16     5     1   ar
    17    11     6   ar
@<TRIPOS>MOLECULE
*****
 16 17 0 0 0
SMALL
GASTEIGER

@<TRIPOS>ATOM
      1 C          62.8195   84.6645   12.6762 C.ar    1  UNL1        0.1342
      2 C          63.3449   83.9532   11.4645 C.ar    1  UNL1        0.0370
      3 C          62.7966   84.6406   10.2493 C.ar    1  UNL1        0.0403
      4 C          61.9322   85.7767   10.7099 C.ar    1  UNL1        0.1464
      5 O          61.9464   85.7915   12.2097 O.2     1  UNL1       -0.4568
      6 C          61.1849   86.7306    9.8257 C.ar    1  UNL1        0.0537
      7 C          60.3782   86.2099    8.6733 C.ar    1  UNL1        0.0062
      8 C          59.6309   87.1638    7.7893 C.ar    1  UNL1        0.0208
      9 C          59.6903   88.6384    8.0576 C.ar    1  UNL1        0.0989
     10 N          60.4970   89.1591    9.2099 N.ar    1  UNL1       -0.2422
     11 C          61.2443   88.2052   10.0940 C.ar    1  UNL1        0.1019
     12 C          63.1152   84.3109   14.1036 C.3     1  UNL1        0.1291
     13 S          62.3307   83.2301   14.7865 S.3     1  UNL1       -0.0690
     14 C          61.1654   81.0389   14.0180 C.3     1  UNL1        0.0845
     15 C          62.4184   81.8154   14.2957 C.2     1  UNL1        0.1996
     16 O          63.7590   81.1773   14.0827 O.2     1  UNL1       -0.2845
@<TRIPOS>BOND
     1    14    15    1
     2    15    16    2
     3    15    13    1
     4    13    12    1
     5    12     1    1
     6     1     2   ar
     7     2     3   ar
     8     3     4   ar
     9     4     6    1
    10     6     7   ar
    11     7     8   ar
    12     8     9   ar
    13     9    10   ar
    14    10    11   ar
    15     4     5   ar
    16     5     1   ar
    17    11     6   ar
@<TRIPOS>MOLECULE
*****
 16 17 0 0 0
SMALL
GASTEIGER

@<TRIPOS>ATOM
      1 C          63.3588   89.3331   12.5451 C.ar    1  UNL1        0.1342
      2 C          63.4233   90.5583   11.6821 C.ar    1  UNL1        0.0370
      3 C          62.6040   90.3024   10.4520 C.ar    1  UNL1        0.0403
      4 C          62.0331   88.9191   10.5547 C.ar    1  UNL1        0.1464
      5 O          62.4996   88.3200   11.8484 O.2     1  UNL1       -0.4568
      6 C          61.1506   88.2520    9.5417 C.ar    1  UNL1        0.0537
      7 C          61.3026   86.7857    9.2643 C.ar    1  UNL1        0.0062
      8 C          60.4201   86.1187    8.2513 C.ar    1  UNL1        0.0208
      9 C          59.3856   86.9179    7.5156 C.ar    1  UNL1        0.0989
     10 N          59.2337   88.3841    7.7930 N.ar    1  UNL1       -0.2422
     11 C          60.1161   89.0512    8.8060 C.ar    1  UNL1        0.1019
     12 C          64.0348   89.1526   13.8719 C.3     1  UNL1        0.1291
     13 S          63.5145   89.8695   15.0824 S.3     1  UNL1       -0.0690
     14 C          65.4984   91.5430   14.9653 C.3     1  UNL1        0.0845
     15 C          64.1846   91.1251   15.5563 C.2     1  UNL1        0.1996
     16 O          63.5409   91.9626   16.6212 O.2     1  UNL1       -0.2845
@<TRIPOS>BOND
     1    14    15    1
     2    15    16    2
     3    15    13    1
     4    13    12    1
     5    12     1    1
     6     1     2   ar
     7     2     3   ar
     8     3     4   ar
     9     4     6    1
    10     6     7   ar
    11     7     8   ar
    12     8     9   ar
    13     9    10   ar
    14    10    11   ar
    15     4     5   ar
    16     5     1   ar
    17    11     6   ar
@<TRIPOS>MOLECULE
*****
 16 17 0 0 0
SMALL
GASTEIGER

@<TRIPOS>ATOM
      1 C          61.1409   86.9478   10.2741 C.ar    1  UNL1        0.1342
      2 C          62.0457   86.4255    9.1977 C.ar    1  UNL1        0.0370
      3 C          62.7561   85.2185    9.7346 C.ar    1  UNL1        0.0403
      4 C          62.2905   84.9948   11.1429 C.ar    1  UNL1        0.1464
      5 O          61.2922   86.0636   11.4763 O.2     1  UNL1       -0.4568
      6 C          62.7436   83.8953   12.0572 C.ar    1  UNL1        0.0537
      7 C          62.6808   82.4676   11.6018 C.ar    1  UNL1        0.0062
      8 C          63.1339   81.3682   12.5161 C.ar    1  UNL1        0.0208
      9 C          63.6497   81.6966   13.8858 C.ar    1  UNL1        0.0989
     10 N          63.7124   83.1244   14.3412 N.ar    1  UNL1       -0.2422
     11 C          63.2593   84.2237   13.4269 C.ar    1  UNL1        0.1019
     12 C          60.2425   88.1443   10.1671 C.3     1  UNL1        0.1291
     13 S          60.2350   88.9667    8.9127 S.3     1  UNL1       -0.0690
     14 C          59.2988   89.4217    6.5322 C.3     1  UNL1        0.0845
     15 C          59.4034   88.5384    7.7401 C.2     1  UNL1        0.1996
     16 O          58.6763   87.2270    7.7754 O.2     1  UNL1       -0.2845
@<TRIPOS>BOND
     1    14    15    1
     2    15    16    2
     3    15    13    1
     4    13    12    1
     5    12     1    1
     6     1     2   ar
     7     2     3   ar
     8     3     4   ar
     9     4     6    1
    10     6     7   ar
    11     7     8   ar
    12     8     9   ar
    13     9    10   ar
    14    10    11   ar
    15     4     5   ar
    16     5     1   ar
    17    11     6   ar
@<TRIPOS>MOLECULE
*****
 16 17 0 0 0
SMALL
GASTEIGER

@<TRIPOS>ATOM
      1 C          60.6354   87.6138   10.5834 C.ar    1  UNL1        0.1342
      2 C          61.1078   87.2422    9.2091 C.ar    1  UNL1        0.0370
      3 C          61.9800   86.0281    9.3313 C.ar    1  UNL1        0.0403
      4 C          62.0467   85.6492   10.7811 C.ar    1  UNL1        0.1464
      5 O          61.2157   86.6293   11.5550 O.2     1  UNL1       -0.4568
      6 C          62.8104   84.4933   11.3562 C.ar    1  UNL1        0.0537
      7 C          63.5959   83.5895   10.4527 C.ar    1  UNL1        0.0062
      8 C          64.3595   82.4337   11.0277 C.ar    1  UNL1        0.0208
      9 C          64.3378   82.1815   12.5062 C.ar    1  UNL1        0.0989
     10 N          63.5523   83.0852   13.4097 N.ar    1  UNL1       -0.2422
     11 C          62.7887   84.2411   12.8347 C.ar    1  UNL1        0.1019
     12 C          59.7399   88.7674   10.9260 C.3     1  UNL1        0.1291
     13 S          60.3339   90.0970   11.2855 S.3     1  UNL1       -0.0690
     14 C          62.7372   90.7654   10.5594 C.3     1  UNL1        0.0845
     15 C          61.7990   90.2068   11.5878 C.2     1  UNL1        0.1996
     16 O          62.3258   89.7581   12.9186 O.2     1  UNL1       -0.2845
@<TRIPOS>BOND
     1    14    15    1
     2    15    16    2
     3    15    13    1
     4    13    12    1
     5    12     1    1
     6     1     2   ar
     7     2     3   ar
     8     3     4   ar
     9     4     6    1
    10     6     7   ar
    11     7     8   ar
    12     8     9   ar
    13     9    10   ar
    14    10    11   ar
    15     4     5   ar
    16     5     1   ar
    17    11     6   ar
@<TRIPOS>MOLECULE
*****
 16 17 0 0 0
SMALL
GASTEIGER

@<TRIPOS>ATOM
      1 C          63.3890   90.7346   11.8549 C.ar    1  UNL1        0.1342
      2 C          63.3120   89.6843   12.9232 C.ar    1  UNL1        0.0370
      3 C          64.4001   89.9559   13.9193 C.ar    1  UNL1        0.0403
      4 C          65.1495   91.1739   13.4667 C.ar    1  UNL1        0.1464
      5 O          64.5246   91.6551   12.1908 O.2     1  UNL1       -0.4568
      6 C          66.3186   91.8006   14.1671 C.ar    1  UNL1        0.0537
      7 C          66.1698   92.3024   15.5728 C.ar    1  UNL1        0.0062
      8 C          67.3389   92.9291   16.2731 C.ar    1  UNL1        0.0208
      9 C          68.6568   93.0539   15.5677 C.ar    1  UNL1        0.0989
     10 N          68.8056   92.5521   14.1620 N.ar    1  UNL1       -0.2422
     11 C          67.6365   91.9255   13.4617 C.ar    1  UNL1        0.1019
     12 C          62.4884   90.8448   10.6604 C.3     1  UNL1        0.1291
     13 S          61.5560   89.7209   10.3178 S.3     1  UNL1       -0.0690
     14 C          59.3890   90.6140   11.4388 C.3     1  UNL1        0.0845
     15 C          60.3307   89.4828   11.1498 C.2     1  UNL1        0.1996
     16 O          60.0473   88.1136   11.6926 O.2     1  UNL1       -0.2845
@<TRIPOS>BOND
     1    14    15    1
     2    15    16    2
     3    15    13    1
     4    13    12    1
     5    12     1    1
     6     1     2   ar
     7     2     3   ar
     8     3     4   ar
     9     4     6    1
    10     6     7   ar
    11     7     8   ar
    12     8     9   ar
    13     9    10   ar
    14    10    11   ar
    15     4     5   ar
    16     5     1   ar
    17    11     6   ar
@<TRIPOS>MOLECULE
*****
 16 17 0 0 0
SMALL
GASTEIGER

@<TRIPOS>ATOM
      1 C          63.5962   88.0959   13.2100 C.ar    1  UNL1        0.1342
      2 C          64.3460   87.8927   14.4933 C.ar    1  UNL1        0.0370
      3 C          64.4124   86.4187   14.7628 C.ar    1  UNL1        0.0403
      4 C          63.7038   85.7108   13.6462 C.ar    1  UNL1        0.1464
      5 O          63.1994   86.7474   12.6865 O.2     1  UNL1       -0.4568
      6 C          63.5301   84.2269   13.5127 C.ar    1  UNL1        0.0537
      7 C          63.1011   83.6368   12.2021 C.ar    1  UNL1        0.0062
      8 C          62.9274   82.1529   12.0687 C.ar    1  UNL1        0.0208
      9 C          63.1827   81.2591   13.2459 C.ar    1  UNL1        0.0989
     10 N          63.6117   81.8491   14.5565 N.ar    1  UNL1       -0.2422
     11 C          63.7854   83.3330   14.6899 C.ar    1  UNL1        0.1019
     12 C          63.2961   89.4159   12.5637 C.3     1  UNL1        0.1291
     13 S          62.4771   89.4672   11.3081 S.3     1  UNL1       -0.0690
     14 C          60.0645   90.4260   11.2072 C.3     1  UNL1        0.0845
     15 C          60.9929   89.2594   11.3717 C.2     1  UNL1        0.1996
     16 O          60.4372   87.8850   11.5998 O.2     1  UNL1       -0.2845
@<TRIPOS>BOND
     1    14    15    1
     2    15    16    2
     3    15    13    1
     4    13    12    1
     5    12     1    1
     6     1     2   ar
     7     2     3   ar
     8     3     4   ar
     9     4     6    1
    10     6     7   ar
    11     7     8   ar
    12     8     9   ar
    13     9    10   ar
    14    10    11   ar
    15     4     5   ar
    16     5     1   ar
    17    11     6   ar
@<TRIPOS>MOLECULE
*****
 16 17 0 0 0
SMALL
GASTEIGER

@<TRIPOS>ATOM
      1 C          63.9135   85.2847   14.3175 C.ar    1  UNL1        0.1342
      2 C          64.5271   86.2728   15.2648 C.ar    1  UNL1        0.0370
      3 C          64.3632   87.6426   14.6759 C.ar    1  UNL1        0.0403
      4 C          63.6485   87.5011   13.3647 C.ar    1  UNL1        0.1464
      5 O          63.3705   86.0438   13.1433 O.2     1  UNL1       -0.4568
      6 C          63.2769   88.6204   12.4378 C.ar    1  UNL1        0.0537
      7 C          62.5336   88.3275   11.1683 C.ar    1  UNL1        0.0062
      8 C          62.1621   89.4467   10.2414 C.ar    1  UNL1        0.0208
      9 C          62.5338   90.8590   10.5840 C.ar    1  UNL1        0.0989
     10 N          63.2771   91.1519   11.8535 N.ar    1  UNL1       -0.2422
     11 C          63.6486   90.0326   12.7804 C.ar    1  UNL1        0.1019
     12 C          63.8535   83.7984   14.5107 C.3     1  UNL1        0.1291
     13 S          62.5255   83.1056   14.5915 S.3     1  UNL1       -0.0690
     14 C          61.0730   81.0062   14.1088 C.3     1  UNL1        0.0845
     15 C          62.4210   81.6444   14.2689 C.2     1  UNL1        0.1996
     16 O          63.6645   80.8215   14.1065 O.2     1  UNL1       -0.2845
@<TRIPOS>BOND
     1    14    15    1
     2    15    16    2
     3    15    13    1
     4    13    12    1
     5    12     1    1
     6     1     2   ar
     7     2     3   ar
     8     3     4   ar
     9     4     6    1
    10     6     7   ar
    11     7     8   ar
    12     8     9   ar
    13     9    10   ar
    14    10    11   ar
    15     4     5   ar
    16     5     1   ar
    17    11     6   ar
@<TRIPOS>MOLECULE
*****
 16 17 0 0 0
SMALL
GASTEIGER

@<TRIPOS>ATOM
      1 C          63.0391   90.1281   12.4930 C.ar    1  UNL1        0.1342
      2 C          63.2955   91.0462   11.3347 C.ar    1  UNL1        0.0370
      3 C          62.7200   90.4110   10.1037 C.ar    1  UNL1        0.0403
      4 C          62.1080   89.1005   10.5011 C.ar    1  UNL1        0.1464
      5 O          62.3052   88.9256   11.9777 O.2     1  UNL1       -0.4568
      6 C          61.4196   88.1344    9.5830 C.ar    1  UNL1        0.0537
      7 C          62.0529   86.8096    9.2768 C.ar    1  UNL1        0.0062
      8 C          61.3645   85.8436    8.3587 C.ar    1  UNL1        0.0208
      9 C          60.0428   86.2024    7.7468 C.ar    1  UNL1        0.0989
     10 N          59.4095   87.5271    8.0530 N.ar    1  UNL1       -0.2422
     11 C          60.0979   88.4932    8.9711 C.ar    1  UNL1        0.1019
     12 C          63.4453   90.3701   13.9165 C.3     1  UNL1        0.1291
     13 S          64.4539   89.4735   14.5714 S.3     1  UNL1       -0.0690
     14 C          64.4445   86.8792   14.7107 C.3     1  UNL1        0.0845
     15 C          64.0081   88.2104   15.2466 C.2     1  UNL1        0.1996
     16 O          63.1259   88.2787   16.4578 O.2     1  UNL1       -0.2845
@<TRIPOS>BOND
     1    14    15    1
     2    15    16    2
     3    15    13    1
     4    13    12    1
     5    12     1    1
     6     1     2   ar
     7     2     3   ar
     8     3     4   ar
     9     4     6    1
    10     6     7   ar
    11     7     8   ar
    12     8     9   ar
    13     9    10   ar
    14    10    11   ar
    15     4     5   ar
    16     5     1   ar
    17    11     6   ar
