@<TRIPOS>MOLECULE
*****
 30 33 0 0 0
SMALL
GASTEIGER

@<TRIPOS>ATOM
      1 C          64.0562   90.3023   13.5676 C.3     1  UNL1        0.0488
      2 N          68.0961   92.1977   16.2300 N.pl3   1  UNL1       -0.3441
      3 C          67.2475   92.1821   14.9930 C.ar    1  UNL1        0.1035
      4 C          66.0762   91.2501   14.8987 C.ar    1  UNL1        0.0296
      5 C          65.2277   91.2345   13.6618 C.ar    1  UNL1        0.0068
      6 C          65.5507   92.1511   12.5193 C.ar    1  UNL1        0.1365
      7 N          64.9002   92.3579   11.1836 N.ar    1  UNL1       -0.1258
      8 N          65.6696   93.4178   10.4524 N.ar    1  UNL1       -0.0406
      9 N          66.7956   93.8661   11.3362 N.ar    1  UNL1       -0.1095
     10 C          66.7221   93.0833   12.6136 C.ar    1  UNL1        0.1838
     11 N          67.5706   93.0988   13.8505 N.ar    1  UNL1       -0.3249
     12 H          67.8841   91.5961   16.9799 H       1  UNL1        0.1437
     13 H          68.8649   92.8095   16.2918 H       1  UNL1        0.1437
     14 H          68.3394   93.7105   13.9124 H       1  UNL1        0.1686
     15 C          63.8695   89.2263   14.5957 C.ar    1  UNL1       -0.0183
     16 C          63.2277   89.5502   15.9122 C.ar    1  UNL1       -0.0040
     17 C          63.0410   88.4741   16.9404 C.ar    1  UNL1       -0.0003
     18 C          63.4960   87.0741   16.6521 C.ar    1  UNL1       -0.0000
     19 C          64.1378   86.7503   15.3356 C.ar    1  UNL1       -0.0003
     20 C          64.3246   87.8263   14.3074 C.ar    1  UNL1       -0.0040
     21 C          63.0717   90.4463   12.4452 C.3     1  UNL1        0.0409
     22 C          62.6932   89.2510   11.6217 C.3     1  UNL1        0.1433
     23 O          61.3750   88.5718   11.8472 O.3     1  UNL1       -0.3490
     24 C          60.8775   87.5542   10.8638 C.3     1  UNL1        0.1686
     25 C          61.7527   86.4014   10.4700 C.ar    1  UNL1        0.0073
     26 C          62.1650   85.3881   11.4963 C.ar    1  UNL1       -0.0019
     27 C          63.0402   84.2353   11.1026 C.ar    1  UNL1       -0.0002
     28 C          63.5031   84.0957    9.6826 C.ar    1  UNL1       -0.0000
     29 C          63.0908   85.1090    8.6563 C.ar    1  UNL1       -0.0002
     30 C          62.2156   86.2619    9.0500 C.ar    1  UNL1       -0.0019
@<TRIPOS>BOND
     1     2     3    1
     2     3     4   ar
     3     4     5   ar
     4     5     1    1
     5     1    21    1
     6    21    22    1
     7    22    23    1
     8    23    24    1
     9    24    25    1
    10    25    26   ar
    11    26    27   ar
    12    27    28   ar
    13    28    29   ar
    14    29    30   ar
    15     1    15    1
    16    15    16   ar
    17    16    17   ar
    18    17    18   ar
    19    18    19   ar
    20    19    20   ar
    21     5     6   ar
    22     6     7   ar
    23     7     8   ar
    24     8     9   ar
    25     9    10   ar
    26    10    11   ar
    27    11     3   ar
    28    30    25   ar
    29    20    15   ar
    30    10     6    1
    31     2    12    1
    32     2    13    1
    33    11    14    1
@<TRIPOS>MOLECULE
*****
 30 33 0 0 0
SMALL
GASTEIGER

@<TRIPOS>ATOM
      1 C          62.2602   86.4834   10.7933 C.3     1  UNL1        0.0488
      2 N          62.6508   81.5914   12.5013 N.pl3   1  UNL1       -0.3441
      3 C          62.8825   83.0599   12.7018 C.ar    1  UNL1        0.1035
      4 C          62.4556   84.0374   11.6474 C.ar    1  UNL1        0.0296
      5 C          62.6873   85.5058   11.8479 C.ar    1  UNL1        0.0068
      6 C          63.3460   85.9966   13.1030 C.ar    1  UNL1        0.1365
      7 N          63.7029   87.3744   13.5764 N.ar    1  UNL1       -0.1258
      8 N          64.3506   87.2483   14.9235 N.ar    1  UNL1       -0.0406
      9 N          64.3938   85.7926   15.2826 N.ar    1  UNL1       -0.1095
     10 C          63.7730   85.0190   14.1575 C.ar    1  UNL1        0.1838
     11 N          63.5412   83.5506   13.9569 N.ar    1  UNL1       -0.3249
     12 H          62.2185   81.2693   11.6776 H       1  UNL1        0.1437
     13 H          62.9311   80.9498   13.1934 H       1  UNL1        0.1437
     14 H          63.8215   82.9090   14.6490 H       1  UNL1        0.1686
     15 C          61.9521   86.0030    9.4061 C.ar    1  UNL1       -0.0183
     16 C          60.5722   86.1722    8.8431 C.ar    1  UNL1       -0.0040
     17 C          60.2641   85.6918    7.4559 C.ar    1  UNL1       -0.0003
     18 C          61.3359   85.0423    6.6317 C.ar    1  UNL1       -0.0000
     19 C          62.7159   84.8732    7.1948 C.ar    1  UNL1       -0.0003
     20 C          63.0240   85.3535    8.5820 C.ar    1  UNL1       -0.0040
     21 C          62.1413   87.9411   11.1260 C.3     1  UNL1        0.0409
     22 C          62.0949   88.9600   10.0261 C.3     1  UNL1        0.1433
     23 O          61.9832   90.4183   10.3588 O.3     1  UNL1       -0.3490
     24 C          63.1713   91.3188   10.1925 C.3     1  UNL1        0.1686
     25 C          64.1170   91.5318   11.3372 C.ar    1  UNL1        0.0073
     26 C          65.3028   92.4355   11.1721 C.ar    1  UNL1       -0.0019
     27 C          66.2485   92.6485   12.3168 C.ar    1  UNL1       -0.0002
     28 C          66.0085   91.9578   13.6265 C.ar    1  UNL1       -0.0000
     29 C          64.8227   91.0541   13.7915 C.ar    1  UNL1       -0.0002
     30 C          63.8769   90.8411   12.6469 C.ar    1  UNL1       -0.0019
@<TRIPOS>BOND
     1     2     3    1
     2     3     4   ar
     3     4     5   ar
     4     5     1    1
     5     1    21    1
     6    21    22    1
     7    22    23    1
     8    23    24    1
     9    24    25    1
    10    25    26   ar
    11    26    27   ar
    12    27    28   ar
    13    28    29   ar
    14    29    30   ar
    15     1    15    1
    16    15    16   ar
    17    16    17   ar
    18    17    18   ar
    19    18    19   ar
    20    19    20   ar
    21     5     6   ar
    22     6     7   ar
    23     7     8   ar
    24     8     9   ar
    25     9    10   ar
    26    10    11   ar
    27    11     3   ar
    28    30    25   ar
    29    20    15   ar
    30    10     6    1
    31     2    12    1
    32     2    13    1
    33    11    14    1
@<TRIPOS>MOLECULE
*****
 30 33 0 0 0
SMALL
GASTEIGER

@<TRIPOS>ATOM
      1 C          62.0191   86.8459   10.5222 C.3     1  UNL1        0.0488
      2 N          63.4478   91.7782    9.7267 N.pl3   1  UNL1       -0.3441
      3 C          62.4633   90.7810   10.2622 C.ar    1  UNL1        0.1035
      4 C          62.7334   89.3121   10.1245 C.ar    1  UNL1        0.0296
      5 C          61.7489   88.3150   10.6599 C.ar    1  UNL1        0.0068
      6 C          60.4943   88.7870   11.3331 C.ar    1  UNL1        0.1365
      7 N          59.3483   88.0447   11.9541 N.ar    1  UNL1       -0.1258
      8 N          58.3699   89.0551   12.4757 N.ar    1  UNL1       -0.0406
      9 N          58.9112   90.4217   12.1769 N.ar    1  UNL1       -0.1095
     10 C          60.2242   90.2561   11.4707 C.ar    1  UNL1        0.1838
     11 N          61.2087   91.2531   10.9353 N.ar    1  UNL1       -0.3249
     12 H          64.2712   91.4684    9.2849 H       1  UNL1        0.1437
     13 H          63.2705   92.7423    9.8171 H       1  UNL1        0.1437
     14 H          61.0314   92.2173   11.0257 H       1  UNL1        0.1686
     15 C          61.8368   86.1711    9.1951 C.ar    1  UNL1       -0.0183
     16 C          60.5056   86.2197    8.5056 C.ar    1  UNL1       -0.0040
     17 C          60.3232   85.5448    7.1784 C.ar    1  UNL1       -0.0003
     18 C          61.4722   84.8214    6.5408 C.ar    1  UNL1       -0.0000
     19 C          62.8034   84.7728    7.2303 C.ar    1  UNL1       -0.0003
     20 C          62.9857   85.4476    8.5574 C.ar    1  UNL1       -0.0040
     21 C          62.4716   86.0518   11.7116 C.3     1  UNL1        0.0409
     22 C          63.3403   86.6914   12.7539 C.3     1  UNL1        0.1433
     23 O          63.5735   85.9989   14.0638 O.3     1  UNL1       -0.3490
     24 C          64.3027   84.6885   14.1002 C.3     1  UNL1        0.1686
     25 C          63.5835   83.4200   13.7486 C.ar    1  UNL1        0.0073
     26 C          62.5315   82.8747   14.6683 C.ar    1  UNL1       -0.0019
     27 C          61.8123   81.6062   14.3168 C.ar    1  UNL1       -0.0002
     28 C          62.1451   80.8830   13.0456 C.ar    1  UNL1       -0.0000
     29 C          63.1971   81.4282   12.1258 C.ar    1  UNL1       -0.0002
     30 C          63.9164   82.6967   12.4773 C.ar    1  UNL1       -0.0019
@<TRIPOS>BOND
     1     2     3    1
     2     3     4   ar
     3     4     5   ar
     4     5     1    1
     5     1    21    1
     6    21    22    1
     7    22    23    1
     8    23    24    1
     9    24    25    1
    10    25    26   ar
    11    26    27   ar
    12    27    28   ar
    13    28    29   ar
    14    29    30   ar
    15     1    15    1
    16    15    16   ar
    17    16    17   ar
    18    17    18   ar
    19    18    19   ar
    20    19    20   ar
    21     5     6   ar
    22     6     7   ar
    23     7     8   ar
    24     8     9   ar
    25     9    10   ar
    26    10    11   ar
    27    11     3   ar
    28    30    25   ar
    29    20    15   ar
    30    10     6    1
    31     2    12    1
    32     2    13    1
    33    11    14    1
@<TRIPOS>MOLECULE
*****
 30 33 0 0 0
SMALL
GASTEIGER

@<TRIPOS>ATOM
      1 C          63.5819   90.3300   12.9388 C.3     1  UNL1        0.0488
      2 N          65.8945   93.6510    9.6794 N.pl3   1  UNL1       -0.3441
      3 C          65.7026   93.1135   11.0667 C.ar    1  UNL1        0.1035
      4 C          64.7382   91.9906   11.3091 C.ar    1  UNL1        0.0296
      5 C          64.5463   91.4530   12.6964 C.ar    1  UNL1        0.0068
      6 C          65.3188   92.0386   13.8411 C.ar    1  UNL1        0.1365
      7 N          65.3396   91.7180   15.3062 N.ar    1  UNL1       -0.1258
      8 N          66.3169   92.6428   15.9692 N.ar    1  UNL1       -0.0406
      9 N          66.9001   93.5350   14.9138 N.ar    1  UNL1       -0.1095
     10 C          66.2832   93.1616   13.5985 C.ar    1  UNL1        0.1838
     11 N          66.4751   93.6990   12.2113 N.ar    1  UNL1       -0.3249
     12 H          65.3875   93.2667    8.9281 H       1  UNL1        0.1437
     13 H          66.5274   94.3881    9.5203 H       1  UNL1        0.1437
     14 H          67.1081   94.4361   12.0521 H       1  UNL1        0.1686
     15 C          62.6177   89.9243   11.8638 C.ar    1  UNL1       -0.0183
     16 C          61.3718   90.7268   11.6319 C.ar    1  UNL1       -0.0040
     17 C          60.4076   90.3211   10.5569 C.ar    1  UNL1       -0.0003
     18 C          60.6893   89.1128    9.7138 C.ar    1  UNL1       -0.0000
     19 C          61.9351   88.3103    9.9457 C.ar    1  UNL1       -0.0003
     20 C          62.8993   88.7161   11.0207 C.ar    1  UNL1       -0.0040
     21 C          63.5817   89.6128   14.2562 C.3     1  UNL1        0.0409
     22 C          64.4246   88.3861   14.4424 C.3     1  UNL1        0.1433
     23 O          63.8322   87.1564   15.0644 O.3     1  UNL1       -0.3490
     24 C          64.4776   85.8200   14.8461 C.3     1  UNL1        0.1686
     25 C          63.9507   84.8966   13.7880 C.ar    1  UNL1        0.0073
     26 C          63.1134   85.4395   12.6681 C.ar    1  UNL1       -0.0019
     27 C          62.5864   84.5162   11.6099 C.ar    1  UNL1       -0.0002
     28 C          62.8967   83.0499   11.6717 C.ar    1  UNL1       -0.0000
     29 C          63.7340   82.5070   12.7916 C.ar    1  UNL1       -0.0002
     30 C          64.2610   83.4304   13.8498 C.ar    1  UNL1       -0.0019
@<TRIPOS>BOND
     1     2     3    1
     2     3     4   ar
     3     4     5   ar
     4     5     1    1
     5     1    21    1
     6    21    22    1
     7    22    23    1
     8    23    24    1
     9    24    25    1
    10    25    26   ar
    11    26    27   ar
    12    27    28   ar
    13    28    29   ar
    14    29    30   ar
    15     1    15    1
    16    15    16   ar
    17    16    17   ar
    18    17    18   ar
    19    18    19   ar
    20    19    20   ar
    21     5     6   ar
    22     6     7   ar
    23     7     8   ar
    24     8     9   ar
    25     9    10   ar
    26    10    11   ar
    27    11     3   ar
    28    30    25   ar
    29    20    15   ar
    30    10     6    1
    31     2    12    1
    32     2    13    1
    33    11    14    1
@<TRIPOS>MOLECULE
*****
 30 33 0 0 0
SMALL
GASTEIGER

@<TRIPOS>ATOM
      1 C          63.6049   90.4530   12.0554 C.3     1  UNL1        0.0488
      2 N          63.9677   85.7346   14.2016 N.pl3   1  UNL1       -0.3441
      3 C          63.8257   87.2208   14.3476 C.ar    1  UNL1        0.1035
      4 C          63.7863   88.0938   13.1286 C.ar    1  UNL1        0.0296
      5 C          63.6443   89.5800   13.2746 C.ar    1  UNL1        0.0068
      6 C          63.5418   90.1930   14.6398 C.ar    1  UNL1        0.1365
      7 N          63.3953   91.6154   15.0928 N.ar    1  UNL1       -0.1258
      8 N          63.3442   91.6214   16.5919 N.ar    1  UNL1       -0.0406
      9 N          63.4591   90.2027   17.0654 N.ar    1  UNL1       -0.1095
     10 C          63.5812   89.3199   15.8588 C.ar    1  UNL1        0.1838
     11 N          63.7232   87.8338   15.7128 N.ar    1  UNL1       -0.3249
     12 H          64.0350   85.3323   13.3056 H       1  UNL1        0.1437
     13 H          63.9936   85.1616   15.0017 H       1  UNL1        0.1437
     14 H          63.7491   87.2608   16.5129 H       1  UNL1        0.1686
     15 C          64.5877   91.5762   11.9052 C.ar    1  UNL1       -0.0183
     16 C          64.5790   92.4195   10.6648 C.ar    1  UNL1       -0.0040
     17 C          65.5618   93.5427   10.5146 C.ar    1  UNL1       -0.0003
     18 C          66.5533   93.8225   11.6048 C.ar    1  UNL1       -0.0000
     19 C          66.5620   92.9792   12.8453 C.ar    1  UNL1       -0.0003
     20 C          65.5792   91.8560   12.9955 C.ar    1  UNL1       -0.0040
     21 C          62.5827   90.2029   10.9866 C.3     1  UNL1        0.0409
     22 C          61.1451   89.9905   11.3587 C.3     1  UNL1        0.1433
     23 O          60.3331   88.9475   10.6496 O.3     1  UNL1       -0.3490
     24 C          60.9288   88.1836    9.5043 C.3     1  UNL1        0.1686
     25 C          61.6427   86.8888    9.7570 C.ar    1  UNL1        0.0073
     26 C          61.5457   86.2287   11.1004 C.ar    1  UNL1       -0.0019
     27 C          62.2596   84.9339   11.3532 C.ar    1  UNL1       -0.0002
     28 C          63.0703   84.2992   10.2624 C.ar    1  UNL1       -0.0000
     29 C          63.1673   84.9592    8.9190 C.ar    1  UNL1       -0.0002
     30 C          62.4535   86.2540    8.6662 C.ar    1  UNL1       -0.0019
@<TRIPOS>BOND
     1     2     3    1
     2     3     4   ar
     3     4     5   ar
     4     5     1    1
     5     1    21    1
     6    21    22    1
     7    22    23    1
     8    23    24    1
     9    24    25    1
    10    25    26   ar
    11    26    27   ar
    12    27    28   ar
    13    28    29   ar
    14    29    30   ar
    15     1    15    1
    16    15    16   ar
    17    16    17   ar
    18    17    18   ar
    19    18    19   ar
    20    19    20   ar
    21     5     6   ar
    22     6     7   ar
    23     7     8   ar
    24     8     9   ar
    25     9    10   ar
    26    10    11   ar
    27    11     3   ar
    28    30    25   ar
    29    20    15   ar
    30    10     6    1
    31     2    12    1
    32     2    13    1
    33    11    14    1
@<TRIPOS>MOLECULE
*****
 30 33 0 0 0
SMALL
GASTEIGER

@<TRIPOS>ATOM
      1 C          62.0371   86.9015   10.6015 C.3     1  UNL1        0.0488
      2 N          63.4580   91.8239    9.7343 N.pl3   1  UNL1       -0.3441
      3 C          62.4683   90.8328   10.2715 C.ar    1  UNL1        0.1035
      4 C          62.7475   89.3628   10.1679 C.ar    1  UNL1        0.0296
      5 C          61.7579   88.3717   10.7052 C.ar    1  UNL1        0.0068
      6 C          60.4891   88.8509   11.3460 C.ar    1  UNL1        0.1365
      7 N          59.3354   88.1155   11.9608 N.ar    1  UNL1       -0.1258
      8 N          58.3431   89.1312   12.4443 N.ar    1  UNL1       -0.0406
      9 N          58.8837   90.4943   12.1284 N.ar    1  UNL1       -0.1095
     10 C          60.2100   90.3210   11.4495 C.ar    1  UNL1        0.1838
     11 N          61.1996   91.3120   10.9123 N.ar    1  UNL1       -0.3249
     12 H          64.2907   91.5095    9.3137 H       1  UNL1        0.1437
     13 H          63.2747   92.7888    9.8023 H       1  UNL1        0.1437
     14 H          61.0164   92.2769   10.9803 H       1  UNL1        0.1686
     15 C          61.8853   86.2004    9.2842 C.ar    1  UNL1       -0.0183
     16 C          63.0637   85.5134    8.6601 C.ar    1  UNL1       -0.0040
     17 C          62.9119   84.8123    7.3428 C.ar    1  UNL1       -0.0003
     18 C          61.5818   84.7981    6.6496 C.ar    1  UNL1       -0.0000
     19 C          60.4034   85.4851    7.2737 C.ar    1  UNL1       -0.0003
     20 C          60.5552   86.1862    8.5910 C.ar    1  UNL1       -0.0040
     21 C          62.4681   86.1326   11.8152 C.3     1  UNL1        0.0409
     22 C          62.6809   84.6504   11.7274 C.3     1  UNL1        0.1433
     23 O          63.2573   83.9050   12.8945 O.3     1  UNL1       -0.3490
     24 C          64.2981   84.5532   13.7585 C.3     1  UNL1        0.1686
     25 C          63.8866   85.5059   14.8415 C.ar    1  UNL1        0.0073
     26 C          63.0847   85.0127   16.0093 C.ar    1  UNL1       -0.0019
     27 C          62.6731   85.9654   17.0924 C.ar    1  UNL1       -0.0002
     28 C          63.0635   87.4112   17.0077 C.ar    1  UNL1       -0.0000
     29 C          63.8654   87.9044   15.8399 C.ar    1  UNL1       -0.0002
     30 C          64.2769   86.9518   14.7568 C.ar    1  UNL1       -0.0019
@<TRIPOS>BOND
     1     2     3    1
     2     3     4   ar
     3     4     5   ar
     4     5     1    1
     5     1    21    1
     6    21    22    1
     7    22    23    1
     8    23    24    1
     9    24    25    1
    10    25    26   ar
    11    26    27   ar
    12    27    28   ar
    13    28    29   ar
    14    29    30   ar
    15     1    15    1
    16    15    16   ar
    17    16    17   ar
    18    17    18   ar
    19    18    19   ar
    20    19    20   ar
    21     5     6   ar
    22     6     7   ar
    23     7     8   ar
    24     8     9   ar
    25     9    10   ar
    26    10    11   ar
    27    11     3   ar
    28    30    25   ar
    29    20    15   ar
    30    10     6    1
    31     2    12    1
    32     2    13    1
    33    11    14    1
@<TRIPOS>MOLECULE
*****
 30 33 0 0 0
SMALL
GASTEIGER

@<TRIPOS>ATOM
      1 C          64.1851   89.4061   13.9697 C.3     1  UNL1        0.0488
      2 N          68.7611   91.8669   13.8999 N.pl3   1  UNL1       -0.3441
      3 C          67.3774   91.7126   14.4583 C.ar    1  UNL1        0.1035
      4 C          66.4731   90.6366   13.9348 C.ar    1  UNL1        0.0296
      5 C          65.0894   90.4823   14.4932 C.ar    1  UNL1        0.0068
      6 C          64.6102   91.4042   15.5751 C.ar    1  UNL1        0.1365
      7 N          63.3078   91.4931   16.3139 N.ar    1  UNL1       -0.1258
      8 N          63.4074   92.6243   17.2940 N.ar    1  UNL1       -0.0406
      9 N          64.7712   93.2344   17.1609 N.ar    1  UNL1       -0.1095
     10 C          65.5146   92.4803   16.0985 C.ar    1  UNL1        0.1838
     11 N          66.8982   92.6346   15.5401 N.ar    1  UNL1       -0.3249
     12 H          69.0757   91.2619   13.1898 H       1  UNL1        0.1437
     13 H          69.3547   92.5733   14.2435 H       1  UNL1        0.1437
     14 H          67.4918   93.3409   15.8837 H       1  UNL1        0.1686
     15 C          63.5509   89.5512   12.6181 C.ar    1  UNL1       -0.0183
     16 C          62.9158   88.3643   11.9564 C.ar    1  UNL1       -0.0040
     17 C          62.2816   88.5094   10.6048 C.ar    1  UNL1       -0.0003
     18 C          62.2826   89.8414    9.9150 C.ar    1  UNL1       -0.0000
     19 C          62.9177   91.0282   10.5767 C.ar    1  UNL1       -0.0003
     20 C          63.5519   90.8831   11.9283 C.ar    1  UNL1       -0.0040
     21 C          63.9149   88.1849   14.7978 C.3     1  UNL1        0.0409
     22 C          64.7913   86.9755   14.6585 C.3     1  UNL1        0.1433
     23 O          64.1801   85.6061   14.6267 O.3     1  UNL1       -0.3490
     24 C          63.4850   85.1235   13.3882 C.3     1  UNL1        0.1686
     25 C          63.0856   83.6829   13.2653 C.ar    1  UNL1        0.0073
     26 C          62.3955   82.9960   14.4063 C.ar    1  UNL1       -0.0019
     27 C          61.9961   81.5554   14.2835 C.ar    1  UNL1       -0.0002
     28 C          62.2869   80.8017   13.0196 C.ar    1  UNL1       -0.0000
     29 C          62.9770   81.4885   11.8786 C.ar    1  UNL1       -0.0002
     30 C          63.3764   82.9291   12.0014 C.ar    1  UNL1       -0.0019
@<TRIPOS>BOND
     1     2     3    1
     2     3     4   ar
     3     4     5   ar
     4     5     1    1
     5     1    21    1
     6    21    22    1
     7    22    23    1
     8    23    24    1
     9    24    25    1
    10    25    26   ar
    11    26    27   ar
    12    27    28   ar
    13    28    29   ar
    14    29    30   ar
    15     1    15    1
    16    15    16   ar
    17    16    17   ar
    18    17    18   ar
    19    18    19   ar
    20    19    20   ar
    21     5     6   ar
    22     6     7   ar
    23     7     8   ar
    24     8     9   ar
    25     9    10   ar
    26    10    11   ar
    27    11     3   ar
    28    30    25   ar
    29    20    15   ar
    30    10     6    1
    31     2    12    1
    32     2    13    1
    33    11    14    1
@<TRIPOS>MOLECULE
*****
 30 33 0 0 0
SMALL
GASTEIGER

@<TRIPOS>ATOM
      1 C          64.2067   88.8112   14.0450 C.3     1  UNL1        0.0488
      2 N          64.9580   83.6894   13.5935 N.pl3   1  UNL1       -0.3441
      3 C          64.4686   84.8658   14.3852 C.ar    1  UNL1        0.1035
      4 C          64.5823   86.2503   13.8193 C.ar    1  UNL1        0.0296
      5 C          64.0929   87.4267   14.6109 C.ar    1  UNL1        0.0068
      6 C          63.4898   87.2185   15.9685 C.ar    1  UNL1        0.1365
      7 N          62.9251   88.1780   16.9737 N.ar    1  UNL1       -0.1258
      8 N          62.4624   87.3865   18.1608 N.ar    1  UNL1       -0.0406
      9 N          62.7411   85.9378   17.8893 N.ar    1  UNL1       -0.1095
     10 C          63.3761   85.8340   16.5343 C.ar    1  UNL1        0.1838
     11 N          63.8655   84.6577   15.7427 N.ar    1  UNL1       -0.3249
     12 H          65.3538   83.8260   12.7025 H       1  UNL1        0.1437
     13 H          64.8833   82.7807   13.9650 H       1  UNL1        0.1437
     14 H          63.7909   83.7490   16.1141 H       1  UNL1        0.1686
     15 C          63.5318   89.1493   12.7488 C.ar    1  UNL1       -0.0183
     16 C          62.8317   88.0782   11.9661 C.ar    1  UNL1       -0.0040
     17 C          62.1567   88.4163   10.6699 C.ar    1  UNL1       -0.0003
     18 C          62.1819   89.8255   10.1564 C.ar    1  UNL1       -0.0000
     19 C          62.8821   90.8965   10.9390 C.ar    1  UNL1       -0.0003
     20 C          63.5570   90.5584   12.2352 C.ar    1  UNL1       -0.0040
     21 C          64.9954   89.8575   14.7752 C.3     1  UNL1        0.0409
     22 C          64.2906   91.0147   15.4187 C.3     1  UNL1        0.1433
     23 O          64.9303   92.3714   15.4277 O.3     1  UNL1       -0.3490
     24 C          66.3483   92.5352   14.9665 C.3     1  UNL1        0.1686
     25 C          66.6656   92.5293   13.5005 C.ar    1  UNL1        0.0073
     26 C          65.7569   93.2289   12.5337 C.ar    1  UNL1       -0.0019
     27 C          66.0741   93.2230   11.0677 C.ar    1  UNL1       -0.0002
     28 C          67.3001   92.5174   10.5684 C.ar    1  UNL1       -0.0000
     29 C          68.2087   91.8177   11.5353 C.ar    1  UNL1       -0.0002
     30 C          67.8915   91.8237   13.0013 C.ar    1  UNL1       -0.0019
@<TRIPOS>BOND
     1     2     3    1
     2     3     4   ar
     3     4     5   ar
     4     5     1    1
     5     1    21    1
     6    21    22    1
     7    22    23    1
     8    23    24    1
     9    24    25    1
    10    25    26   ar
    11    26    27   ar
    12    27    28   ar
    13    28    29   ar
    14    29    30   ar
    15     1    15    1
    16    15    16   ar
    17    16    17   ar
    18    17    18   ar
    19    18    19   ar
    20    19    20   ar
    21     5     6   ar
    22     6     7   ar
    23     7     8   ar
    24     8     9   ar
    25     9    10   ar
    26    10    11   ar
    27    11     3   ar
    28    30    25   ar
    29    20    15   ar
    30    10     6    1
    31     2    12    1
    32     2    13    1
    33    11    14    1
@<TRIPOS>MOLECULE
*****
 30 33 0 0 0
SMALL
GASTEIGER

@<TRIPOS>ATOM
      1 C          63.2086   88.8835   12.5279 C.3     1  UNL1        0.0488
      2 N          66.4266   92.9428   12.1182 N.pl3   1  UNL1       -0.3441
      3 C          65.5010   92.0966   12.9413 C.ar    1  UNL1        0.1035
      4 C          64.8176   90.9132   12.3231 C.ar    1  UNL1        0.0296
      5 C          63.8920   90.0670   13.1462 C.ar    1  UNL1        0.0068
      6 C          63.6499   90.4045   14.5875 C.ar    1  UNL1        0.1365
      7 N          62.7975   89.7594   15.6399 N.ar    1  UNL1       -0.1258
      8 N          62.9542   90.5443   16.9085 N.ar    1  UNL1       -0.0406
      9 N          63.9033   91.6744   16.6402 N.ar    1  UNL1       -0.1095
     10 C          64.3333   91.5880   15.2058 C.ar    1  UNL1        0.1838
     11 N          65.2589   92.4341   14.3827 N.ar    1  UNL1       -0.3249
     12 H          66.5855   92.7213   11.1722 H       1  UNL1        0.1437
     13 H          66.8751   93.7195   12.5241 H       1  UNL1        0.1437
     14 H          65.7074   93.2108   14.7884 H       1  UNL1        0.1686
     15 C          62.1491   89.0890   11.4861 C.ar    1  UNL1       -0.0183
     16 C          61.1200   90.1655   11.6653 C.ar    1  UNL1       -0.0040
     17 C          60.0606   90.3711   10.6235 C.ar    1  UNL1       -0.0003
     18 C          60.0302   89.5002    9.4026 C.ar    1  UNL1       -0.0000
     19 C          61.0593   88.4237    9.2234 C.ar    1  UNL1       -0.0003
     20 C          62.1188   88.2181   10.2652 C.ar    1  UNL1       -0.0040
     21 C          63.5847   87.4945   12.9513 C.3     1  UNL1        0.0409
     22 C          64.3003   87.2747   14.2511 C.3     1  UNL1        0.1433
     23 O          64.5806   85.8799   14.7264 O.3     1  UNL1       -0.3490
     24 C          63.4501   84.9147   14.9278 C.3     1  UNL1        0.1686
     25 C          63.2524   83.7802   13.9668 C.ar    1  UNL1        0.0073
     26 C          63.1471   82.3739   14.4781 C.ar    1  UNL1       -0.0019
     27 C          62.9494   81.2393   13.5171 C.ar    1  UNL1       -0.0002
     28 C          62.8569   81.5110   12.0448 C.ar    1  UNL1       -0.0000
     29 C          62.9622   82.9172   11.5335 C.ar    1  UNL1       -0.0002
     30 C          63.1599   84.0518   12.4945 C.ar    1  UNL1       -0.0019
@<TRIPOS>BOND
     1     2     3    1
     2     3     4   ar
     3     4     5   ar
     4     5     1    1
     5     1    21    1
     6    21    22    1
     7    22    23    1
     8    23    24    1
     9    24    25    1
    10    25    26   ar
    11    26    27   ar
    12    27    28   ar
    13    28    29   ar
    14    29    30   ar
    15     1    15    1
    16    15    16   ar
    17    16    17   ar
    18    17    18   ar
    19    18    19   ar
    20    19    20   ar
    21     5     6   ar
    22     6     7   ar
    23     7     8   ar
    24     8     9   ar
    25     9    10   ar
    26    10    11   ar
    27    11     3   ar
    28    30    25   ar
    29    20    15   ar
    30    10     6    1
    31     2    12    1
    32     2    13    1
    33    11    14    1
